<?xml version="1.0" encoding="UTF-8"?>

<!-- generated on 2022-07-06 10:23:14 by Eclipse SUMO duarouter Version 1.13.0
<configuration xmlns:xsi="http://www.w3.org/2001/XMLSchema-instance" xsi:noNamespaceSchemaLocation="http://sumo.dlr.de/xsd/duarouterConfiguration.xsd">

    <input>
        <net-file value="C:\Users\86135\Desktop\OpenCDA-main\util\fourwaysignal.net.xml"/>
        <route-files value="C:\Users\86135\Desktop\OpenCDA-main\util\fourwaysignal.trips.xml"/>
    </input>

    <output>
        <output-file value="fourwaysignal_.rou.xml"/>
        <alternatives-output value="fourwaysignal_.rou.alt.xml"/>
    </output>

    <time>
        <begin value="0"/>
        <end value="50.0"/>
    </time>

    <report>
        <no-warnings value="true"/>
        <ignore-errors value="true"/>
        <no-step-log value="true"/>
    </report>

</configuration>
-->

<routes xmlns:xsi="http://www.w3.org/2001/XMLSchema-instance" xsi:noNamespaceSchemaLocation="http://sumo.dlr.de/xsd/routes_file.xsd">
    <vehicle id="0" depart="0.00">
        <route edges="3#1 3#0 -3#0 -3#1 -3#2 -3#3 -3#4 -1#0"/>
    </vehicle>
    <vehicle id="1" depart="1.00">
        <route edges="-3#3 -3#4 -1#0 -1#1 -1#2 1#2 1#1 1#0 3#4 3#3 3#2 3#1 3#0 -3#0 -3#1 -3#2"/>
    </vehicle>
    <vehicle id="2" depart="2.00">
        <route edges="3#3 3#2 3#1 3#0"/>
    </vehicle>
    <vehicle id="3" depart="3.00">
        <route edges="7#1 7#0 -1#0 -1#1"/>
    </vehicle>
    <vehicle id="4" depart="4.00">
        <route edges="-7#1 -7#2 -7#3 7#3 7#2 7#1 7#0 -1#0"/>
    </vehicle>
    <vehicle id="5" depart="5.00">
        <route edges="-3#1 -3#2 -3#3 -3#4 0"/>
    </vehicle>
    <vehicle id="6" depart="6.00">
        <route edges="-0 3#4 3#3 3#2 3#1 3#0 -3#0 -3#1 -3#2"/>
    </vehicle>
    <vehicle id="7" depart="7.00">
        <route edges="3#1 3#0 -3#0 -3#1 -3#2 -3#3 -3#4 0"/>
    </vehicle>
    <vehicle id="8" depart="8.00">
        <route edges="-3#1 -3#2 -3#3 -3#4 -1#0 -1#1 -1#2 1#2 1#1 1#0"/>
    </vehicle>
    <vehicle id="9" depart="9.00">
        <route edges="3#4 3#3 3#2 3#1 3#0 -3#0 -3#1 -3#2 -3#3 -3#4 -1#0"/>
    </vehicle>
</routes>
