<?xml version='1.0' encoding='UTF-8'?>
<!-- generated on 2022-07-06 09:06:41 by Eclipse SUMO netconvert Version 1.13.0
<configuration xmlns:xsi="http://www.w3.org/2001/XMLSchema-instance" xsi:noNamespaceSchemaLocation="http://sumo.dlr.de/xsd/netconvertConfiguration.xsd">

    <input>
        <type-files value="C:\Users\86135\Desktop\OpenCDA-main\util\data/opendrive_netconvert.typ.xml"/>
        <opendrive-files value="fourwaysignal.xodr"/>
    </input>

    <output>
        <output-file value="C:\Users\86135\AppData\Local\Temp\tmpkdpgrbv9\fourwaysignal.net.xml"/>
        <output.original-names value="true"/>
    </output>

    <processing>
        <geometry.remove value="true"/>
        <geometry.min-radius.fix value="true"/>
        <geometry.max-grade.fix value="false"/>
    </processing>

    <tls_building>
        <tls.discard-loaded value="true"/>
        <tls.left-green.time value="0"/>
    </tls_building>

    <junctions>
        <rectangular-lane-cut value="true"/>
    </junctions>

    <formats>
        <opendrive.import-all-lanes value="true"/>
        <opendrive.curve-resolution value="1"/>
    </formats>

    <report>
        <aggregate-warnings value="5"/>
    </report>

</configuration>
-->
<net xmlns:xsi="http://www.w3.org/2001/XMLSchema-instance" version="1.9" junctionCornerDetail="5" rectangularLaneCut="true" limitTurnSpeed="5.50" xsi:noNamespaceSchemaLocation="http://sumo.dlr.de/xsd/net_file.xsd">
  <location netOffset="117.21,80.39" convBoundary="0.00,0.00,265.96,154.43" origBoundary="-117.21,-80.39,148.75,74.04" projParameter="!"/>
  <type id="bidirectional" priority="1" speed="1.39" disallow="pedestrian tram rail_urban rail rail_electric rail_fast ship" width="3.65"/>
  <type id="biking" priority="-1" speed="5.56" allow="bicycle" width="1.50"/>
  <type id="border" priority="0" speed="1.39" disallow="all" discard="1" width="0.10"/>
  <type id="driving" priority="1" speed="13.89" disallow="pedestrian tram rail_urban rail rail_electric rail_fast ship" width="3.65"/>
  <type id="entry" priority="1" speed="22.22" disallow="pedestrian tram rail_urban rail rail_electric rail_fast ship" width="3.65"/>
  <type id="exit" priority="1" speed="22.22" disallow="pedestrian tram rail_urban rail rail_electric rail_fast ship" width="3.65"/>
  <type id="median" priority="0" speed="1.39" disallow="all" discard="1" width="0.10"/>
  <type id="mwyEntry" priority="1" speed="22.22" allow="private emergency authority army vip passenger hov taxi bus coach delivery truck trailer motorcycle evehicle custom1 custom2" width="3.65"/>
  <type id="mwyExit" priority="1" speed="22.22" allow="private emergency authority army vip passenger hov taxi bus coach delivery truck trailer motorcycle evehicle custom1 custom2" width="3.65"/>
  <type id="none" priority="0" speed="1.39" disallow="all" discard="1" width="1.00"/>
  <type id="offRamp" priority="1" speed="22.22" allow="private emergency authority army vip passenger hov taxi bus coach delivery truck trailer motorcycle evehicle custom1 custom2" width="3.65"/>
  <type id="onRamp" priority="1" speed="22.22" allow="private emergency authority army vip passenger hov taxi bus coach delivery truck trailer motorcycle evehicle custom1 custom2" width="3.65"/>
  <type id="parking" priority="1" speed="1.39" disallow="pedestrian tram rail_urban rail rail_electric rail_fast ship" width="2.50"/>
  <type id="rail" priority="3" speed="33.33" allow="rail_urban rail rail_electric rail_fast" width="3.65"/>
  <type id="restricted" priority="0" speed="13.89" disallow="all" width="3.65"/>
  <type id="roadWorks" priority="0" speed="1.39" allow="authority" width="3.65"/>
  <type id="shoulder" priority="0" speed="1.39" disallow="all" discard="1" width="1.00"/>
  <type id="sidewalk" priority="-2" speed="2.78" allow="pedestrian" width="2.50"/>
  <type id="special1" priority="1" speed="22.22" allow="custom1" discard="1" width="3.65"/>
  <type id="special2" priority="1" speed="22.22" allow="custom2" discard="1" width="3.65"/>
  <type id="special3" priority="1" speed="22.22" allow="custom1 custom2" discard="1" width="3.65"/>
  <type id="stop" priority="1" speed="13.89" disallow="pedestrian tram rail_urban rail rail_electric rail_fast ship" width="3.65"/>
  <type id="tram" priority="2" speed="13.89" allow="tram" width="3.65"/>
  <edge id=":0.begin_0" function="internal">
    <lane id=":0.begin_0_0" index="0" disallow="pedestrian tram rail_urban rail rail_electric rail_fast ship" speed="3.82" length="5.11" width="3.50" shape="124.97,154.84 123.81,155.91 122.86,156.13 122.11,155.50 121.57,154.02"/>
  </edge>
  <edge id=":1#1_0" function="internal">
    <lane id=":1#1_0_0" index="0" allow="pedestrian" speed="17.88" length="3.00" width="2.00" shape="119.33,39.81 118.81,36.86"/>
    <lane id=":1#1_0_1" index="1" disallow="all" speed="17.88" length="3.00" width="0.63" shape="120.63,39.58 120.10,36.63"/>
    <lane id=":1#1_0_2" index="2" disallow="pedestrian tram rail_urban rail rail_electric rail_fast ship" speed="17.88" length="3.00" width="3.50" shape="122.66,39.22 122.14,36.27"/>
  </edge>
  <edge id=":1#1_3" function="internal">
    <lane id=":1#1_3_0" index="0" allow="pedestrian" speed="17.88" length="3.33" width="2.00" shape="130.69,34.75 131.12,35.65 131.79,36.08 132.46,36.52 132.89,37.41"/>
    <lane id=":1#1_3_1" index="1" disallow="all" speed="17.88" length="3.33" width="0.63" shape="129.39,34.98 129.82,35.88 130.49,36.31 131.16,36.75 131.59,37.64"/>
    <lane id=":1#1_3_2" index="2" allow="emergency authority" speed="17.88" length="3.33" width="3.50" shape="128.19,35.20 128.48,36.07 128.87,36.60 129.26,37.13 129.55,38.00"/>
    <lane id=":1#1_3_3" index="3" disallow="pedestrian tram rail_urban rail rail_electric rail_fast ship" speed="17.88" length="3.33" width="3.50" shape="125.58,35.66 126.11,38.61"/>
  </edge>
  <edge id=":1#2_0" function="internal">
    <lane id=":1#2_0_0" index="0" allow="pedestrian" speed="17.88" length="8.00" width="2.00" shape="118.12,32.96 116.72,25.09"/>
    <lane id=":1#2_0_1" index="1" disallow="all" speed="17.88" length="8.00" width="0.63" shape="119.41,32.73 118.02,24.86"/>
    <lane id=":1#2_0_2" index="2" disallow="pedestrian tram rail_urban rail rail_electric rail_fast ship" speed="17.88" length="8.00" width="3.50" shape="121.45,32.37 120.06,24.50"/>
  </edge>
  <edge id=":1#2_3" function="internal">
    <lane id=":1#2_3_0" index="0" allow="pedestrian" speed="17.88" length="8.18" width="2.00" shape="126.84,23.30 127.53,25.61 128.42,27.08 129.30,28.54 130.00,30.86"/>
    <lane id=":1#2_3_1" index="1" disallow="all" speed="17.88" length="8.18" width="0.63" shape="125.54,23.53 126.23,25.84 127.12,27.31 128.01,28.77 128.70,31.09"/>
    <lane id=":1#2_3_2" index="2" disallow="pedestrian tram rail_urban rail rail_electric rail_fast ship" speed="17.88" length="8.18" width="3.50" shape="123.50,23.89 124.90,31.76"/>
  </edge>
  <edge id=":1.end_0" function="internal">
    <lane id=":1.end_0_0" index="0" disallow="pedestrian tram rail_urban rail rail_electric rail_fast ship" speed="3.82" length="5.11" width="3.50" shape="115.78,0.30 116.41,-1.14 117.20,-1.72 118.13,-1.44 119.22,-0.30"/>
  </edge>
  <edge id=":10_0" function="internal">
    <lane id=":10_0_0" index="0" allow="pedestrian" speed="7.31" length="11.00" width="2.00" shape="143.39,88.88 139.97,89.59 137.52,90.86 136.05,92.67 135.56,95.04">
      <param key="origId" value="44_2"/>
    </lane>
    <lane id=":10_0_1" index="1" disallow="all" speed="7.77" length="12.95" width="0.63" shape="143.24,87.57 139.31,88.41 136.50,89.94 134.81,92.15 134.24,95.04">
      <param key="origId" value="44_1"/>
    </lane>
    <lane id=":10_0_2" index="2" disallow="pedestrian tram rail_urban rail rail_electric rail_fast ship" speed="8.86" length="16.00" width="3.50" shape="143.01,85.51 138.28,86.56 134.89,88.50 132.86,91.32 132.17,95.04">
      <param key="origId" value="37_1"/>
    </lane>
  </edge>
  <edge id=":10_3" function="internal">
    <lane id=":10_3_0" index="0" disallow="pedestrian tram rail_urban rail rail_electric rail_fast ship" speed="17.88" length="21.95" width="3.50" shape="143.01,85.51 121.22,88.32">
      <param key="origId" value="91_3"/>
      <param key="signalID" value="97 98"/>
    </lane>
    <lane id=":10_3_1" index="1" disallow="pedestrian tram rail_urban rail rail_electric rail_fast ship" speed="17.88" length="21.95" width="3.50" shape="142.62,82.04 120.87,84.84">
      <param key="origId" value="91_2"/>
      <param key="signalID" value="97 98"/>
    </lane>
  </edge>
  <edge id=":10_5" function="internal">
    <lane id=":10_5_0" index="0" disallow="pedestrian tram rail_urban rail rail_electric rail_fast ship" speed="10.51" length="4.48" width="3.50" shape="142.23,78.56 137.76,78.26">
      <param key="origId" value="71_1"/>
      <param key="signalID" value="101 93 94"/>
    </lane>
  </edge>
  <edge id=":10_22" function="internal">
    <lane id=":10_22_0" index="0" disallow="pedestrian tram rail_urban rail rail_electric rail_fast ship" speed="10.51" length="20.29" width="3.50" shape="137.76,78.26 136.23,78.16 131.63,75.47 128.43,70.48 126.63,63.20">
      <param key="origId" value="71_1"/>
      <param key="signalID" value="101 93 94"/>
    </lane>
  </edge>
  <edge id=":10_6" function="internal">
    <lane id=":10_6_0" index="0" allow="pedestrian" speed="6.20" length="8.38" width="2.00" shape="136.92,61.85 137.52,64.78 138.41,66.82 139.59,67.97 141.07,68.24">
      <param key="origId" value="62_-2"/>
      <param key="signalID" value="100 95"/>
    </lane>
    <lane id=":10_6_1" index="1" disallow="all" speed="6.74" length="10.44" width="0.63" shape="135.62,62.02 136.36,65.50 137.55,67.92 139.17,69.27 141.22,69.55">
      <param key="origId" value="62_-1"/>
      <param key="signalID" value="100 95"/>
    </lane>
    <lane id=":10_6_2" index="2" disallow="pedestrian tram rail_urban rail rail_electric rail_fast ship" speed="7.95" length="13.69" width="3.50" shape="133.57,62.29 134.56,66.64 136.20,69.64 138.50,71.29 141.45,71.60">
      <param key="origId" value="67_1"/>
      <param key="signalID" value="100 95"/>
    </lane>
  </edge>
  <edge id=":10_9" function="internal">
    <lane id=":10_9_0" index="0" disallow="pedestrian tram rail_urban rail rail_electric rail_fast ship" speed="17.88" length="32.40" width="3.50" shape="130.10,62.74 131.31,72.45 131.94,79.28 132.16,85.92 132.17,95.04">
      <param key="origId" value="20_1"/>
      <param key="signalID" value="93 94"/>
    </lane>
  </edge>
  <edge id=":10_10" function="internal">
    <lane id=":10_10_0" index="0" disallow="pedestrian tram rail_urban rail rail_electric rail_fast ship" speed="10.74" length="26.88" width="3.50" shape="130.10,62.74 130.55,71.95 129.16,78.71 125.93,83.00 120.87,84.84">
      <param key="origId" value="52_-1"/>
      <param key="signalID" value="99 96"/>
    </lane>
  </edge>
  <edge id=":10_11" function="internal">
    <lane id=":10_11_0" index="0" allow="pedestrian" speed="5.43" length="6.51" width="2.00" shape="119.11,67.54 121.10,67.12 122.46,66.33 123.18,65.17 123.27,63.64">
      <param key="origId" value="58_2"/>
    </lane>
    <lane id=":10_11_1" index="1" disallow="all" speed="6.04" length="8.67" width="0.63" shape="119.24,68.86 121.81,68.29 123.56,67.20 124.48,65.60 124.58,63.47">
      <param key="origId" value="58_1"/>
    </lane>
    <lane id=":10_11_2" index="2" disallow="pedestrian tram rail_urban rail rail_electric rail_fast ship" speed="7.38" length="12.07" width="3.50" shape="119.45,70.91 122.93,70.12 125.29,68.57 126.52,66.26 126.63,63.20">
      <param key="origId" value="60_-1"/>
    </lane>
  </edge>
  <edge id=":10_14" function="internal">
    <lane id=":10_14_0" index="0" disallow="pedestrian tram rail_urban rail rail_electric rail_fast ship" speed="17.88" length="21.84" width="3.50" shape="119.80,74.39 141.45,71.60">
      <param key="origId" value="92_-2"/>
    </lane>
    <lane id=":10_14_1" index="1" disallow="pedestrian tram rail_urban rail rail_electric rail_fast ship" speed="17.88" length="21.84" width="3.50" shape="120.16,77.88 141.84,75.08">
      <param key="origId" value="92_-1"/>
      <param key="signalID" value="100 101"/>
    </lane>
  </edge>
  <edge id=":10_16" function="internal">
    <lane id=":10_16_0" index="0" disallow="pedestrian tram rail_urban rail rail_electric rail_fast ship" speed="9.29" length="4.21" width="3.50" shape="120.51,81.36 124.71,81.69">
      <param key="origId" value="22_-1"/>
      <param key="signalID" value="102"/>
    </lane>
  </edge>
  <edge id=":10_23" function="internal">
    <lane id=":10_23_0" index="0" disallow="pedestrian tram rail_urban rail rail_electric rail_fast ship" speed="9.29" length="16.70" width="3.50" shape="124.71,81.69 125.63,81.77 129.27,84.18 131.46,88.61 132.17,95.04">
      <param key="origId" value="22_-1"/>
      <param key="signalID" value="102"/>
    </lane>
  </edge>
  <edge id=":10_17" function="internal">
    <lane id=":10_17_0" index="0" allow="pedestrian" speed="5.05" length="5.84" width="2.00" shape="125.29,95.02 125.06,93.42 124.36,92.33 123.20,91.76 121.57,91.69">
      <param key="origId" value="31_-2"/>
      <param key="signalID" value="98 97"/>
    </lane>
    <lane id=":10_17_1" index="1" disallow="all" speed="5.70" length="8.13" width="0.63" shape="126.61,95.03 126.29,92.79 125.32,91.28 123.70,90.47 121.43,90.38">
      <param key="origId" value="31_-1"/>
      <param key="signalID" value="98 97"/>
    </lane>
    <lane id=":10_17_2" index="2" disallow="pedestrian tram rail_urban rail rail_electric rail_fast ship" speed="7.10" length="11.72" width="3.50" shape="128.67,95.03 128.21,91.81 126.82,89.62 124.49,88.46 121.22,88.32">
      <param key="origId" value="30_-1"/>
      <param key="signalID" value="98 95 96 97"/>
    </lane>
  </edge>
  <edge id=":10_20" function="internal">
    <lane id=":10_20_0" index="0" disallow="pedestrian tram rail_urban rail rail_electric rail_fast ship" speed="17.88" length="31.94" width="3.50" shape="128.67,95.03 128.64,85.82 128.39,79.07 127.77,72.34 126.63,63.20">
      <param key="origId" value="21_-1"/>
      <param key="signalID" value="93 95 96"/>
    </lane>
  </edge>
  <edge id=":10_21" function="internal">
    <lane id=":10_21_0" index="0" disallow="pedestrian tram rail_urban rail rail_electric rail_fast ship" speed="11.25" length="26.46" width="3.50" shape="128.67,95.03 129.51,86.85 131.98,80.80 136.09,76.88 141.84,75.08">
      <param key="origId" value="32_-1"/>
      <param key="signalID" value="102 95 96 94"/>
    </lane>
  </edge>
  <edge id=":3#1_0" function="internal">
    <lane id=":3#1_0_0" index="0" allow="pedestrian" speed="17.88" length="8.19" width="2.00" shape="78.03,92.53 69.72,91.85"/>
    <lane id=":3#1_0_1" index="1" disallow="all" speed="17.88" length="8.19" width="0.63" shape="78.11,91.21 69.84,90.54"/>
    <lane id=":3#1_0_2" index="2" disallow="pedestrian tram rail_urban rail rail_electric rail_fast ship" speed="17.88" length="8.19" width="3.50" shape="78.24,89.15 70.04,88.48"/>
    <lane id=":3#1_0_3" index="3" disallow="pedestrian tram rail_urban rail rail_electric rail_fast ship" speed="17.88" length="8.19" width="3.50" shape="78.46,85.65 70.37,85.00"/>
    <lane id=":3#1_0_4" index="4" disallow="pedestrian tram rail_urban rail rail_electric rail_fast ship" speed="17.88" length="8.19" width="3.50" shape="78.68,82.16 70.71,81.52"/>
  </edge>
  <edge id=":3#1_5" function="internal">
    <lane id=":3#1_5_0" index="0" allow="pedestrian" speed="17.88" length="7.76" width="2.00" shape="71.70,71.18 79.34,71.80"/>
    <lane id=":3#1_5_1" index="1" disallow="all" speed="17.88" length="7.76" width="0.63" shape="71.57,72.49 79.26,73.11"/>
    <lane id=":3#1_5_2" index="2" disallow="pedestrian tram rail_urban rail rail_electric rail_fast ship" speed="17.88" length="7.76" width="3.50" shape="71.38,74.55 79.13,75.17"/>
    <lane id=":3#1_5_3" index="3" disallow="pedestrian tram rail_urban rail rail_electric rail_fast ship" speed="17.88" length="7.76" width="3.50" shape="71.04,78.03 78.90,78.67"/>
  </edge>
  <edge id=":3#2_0" function="internal">
    <lane id=":3#2_0_0" index="0" allow="pedestrian" speed="17.88" length="7.42" width="2.00" shape="85.43,93.61 83.68,93.05 82.45,92.80 81.18,92.70 79.34,92.61"/>
    <lane id=":3#2_0_1" index="1" disallow="all" speed="17.88" length="7.42" width="0.63" shape="85.86,92.37 84.01,91.78 82.70,91.50 81.37,91.39 79.42,91.29"/>
    <lane id=":3#2_0_2" index="2" disallow="pedestrian tram rail_urban rail rail_electric rail_fast ship" speed="17.88" length="7.42" width="3.50" shape="86.54,90.42 84.53,89.77 83.11,89.46 81.66,89.34 79.54,89.23"/>
    <lane id=":3#2_0_3" index="3" disallow="pedestrian tram rail_urban rail rail_electric rail_fast ship" speed="17.88" length="7.42" width="3.50" shape="87.68,87.11 85.40,86.37 83.80,86.02 82.15,85.86 79.75,85.73"/>
    <lane id=":3#2_0_4" index="4" disallow="pedestrian tram rail_urban rail rail_electric rail_fast ship" speed="17.88" length="7.42" width="3.50" shape="88.83,83.80 86.28,82.97 84.48,82.57 82.64,82.39 79.95,82.24"/>
  </edge>
  <edge id=":3#2_5" function="internal">
    <lane id=":3#2_5_0" index="0" allow="pedestrian" speed="17.88" length="12.48" width="2.00" shape="80.57,71.87 84.63,71.29 87.39,69.79 90.09,68.63 93.94,69.08"/>
    <lane id=":3#2_5_1" index="1" disallow="all" speed="17.88" length="12.48" width="0.63" shape="80.49,73.19 84.45,72.60 87.13,71.09 89.75,69.91 93.51,70.32"/>
    <lane id=":3#2_5_2" index="2" allow="emergency authority" speed="17.88" length="12.48" width="3.49" shape="80.47,73.51 84.19,73.18 86.78,72.26 89.30,71.66 92.83,72.27"/>
    <lane id=":3#2_5_3" index="3" disallow="pedestrian tram rail_urban rail rail_electric rail_fast ship" speed="17.88" length="12.48" width="3.50" shape="80.37,75.25 83.77,75.18 86.14,74.84 88.46,74.79 91.69,75.58"/>
    <lane id=":3#2_5_4" index="4" disallow="pedestrian tram rail_urban rail rail_electric rail_fast ship" speed="17.88" length="12.48" width="3.50" shape="80.16,78.75 83.28,78.66 85.46,78.29 87.58,78.18 90.54,78.88"/>
  </edge>
  <edge id=":3#3_0" function="internal">
    <lane id=":3#3_0_0" index="0" allow="pedestrian" speed="17.88" length="2.48" width="2.00" shape="88.00,92.50 85.61,93.68"/>
    <lane id=":3#3_0_1" index="1" disallow="all" speed="17.88" length="2.48" width="0.63" shape="88.41,91.26 86.05,92.44"/>
    <lane id=":3#3_0_2" index="2" disallow="pedestrian tram rail_urban rail rail_electric rail_fast ship" speed="17.88" length="2.48" width="3.50" shape="89.07,89.30 86.74,90.49"/>
    <lane id=":3#3_0_3" index="3" disallow="pedestrian tram rail_urban rail rail_electric rail_fast ship" speed="17.88" length="2.48" width="3.50" shape="90.17,86.00 87.92,87.19"/>
    <lane id=":3#3_0_4" index="4" allow="emergency authority" speed="17.88" length="2.48" width="3.50" shape="91.00,83.50 89.09,83.89"/>
  </edge>
  <edge id=":3#3_5" function="internal">
    <lane id=":3#3_5_0" index="0" allow="pedestrian" speed="17.88" length="2.24" width="2.00" shape="94.32,69.21 96.22,67.86"/>
    <lane id=":3#3_5_1" index="1" disallow="all" speed="17.88" length="2.24" width="0.63" shape="93.87,70.45 95.80,69.12"/>
    <lane id=":3#3_5_2" index="2" disallow="pedestrian tram rail_urban rail rail_electric rail_fast ship" speed="17.88" length="2.24" width="3.50" shape="93.18,72.40 95.11,71.21"/>
    <lane id=":3#3_5_3" index="3" disallow="pedestrian tram rail_urban rail rail_electric rail_fast ship" speed="17.88" length="2.24" width="3.50" shape="92.01,75.69 94.00,74.53"/>
    <lane id=":3#3_5_4" index="4" disallow="pedestrian tram rail_urban rail rail_electric rail_fast ship" speed="17.88" length="2.24" width="3.50" shape="90.84,78.99 92.89,77.85"/>
    <lane id=":3#3_5_5" index="5" allow="emergency authority" speed="17.88" length="2.24" width="3.50" shape="89.96,81.44 91.78,81.17"/>
  </edge>
  <edge id=":3#4_0" function="internal">
    <lane id=":3#4_0_0" index="0" allow="pedestrian" speed="17.88" length="13.16" width="2.00" shape="102.26,92.96 98.05,93.23 95.14,93.48 92.28,93.37 88.19,92.55"/>
    <lane id=":3#4_0_1" index="1" disallow="all" speed="17.88" length="13.16" width="0.63" shape="102.22,91.64 98.15,91.91 95.33,92.18 92.56,92.10 88.61,91.31"/>
    <lane id=":3#4_0_2" index="2" disallow="pedestrian tram rail_urban rail rail_electric rail_fast ship" speed="17.88" length="13.16" width="3.50" shape="102.16,89.58 98.30,89.85 95.63,90.14 93.00,90.09 89.26,89.35"/>
    <lane id=":3#4_0_3" index="3" disallow="pedestrian tram rail_urban rail rail_electric rail_fast ship" speed="17.88" length="13.16" width="3.50" shape="102.05,86.08 98.56,86.36 96.14,86.69 93.75,86.71 90.36,86.05"/>
  </edge>
  <edge id=":3#4_4" function="internal">
    <lane id=":3#4_4_0" index="0" allow="pedestrian" speed="17.88" length="7.35" width="2.00" shape="96.42,67.91 97.92,68.27 98.96,68.54 100.00,68.69 101.54,68.70"/>
    <lane id=":3#4_4_1" index="1" disallow="all" speed="17.88" length="7.35" width="0.63" shape="96.00,69.16 97.64,69.56 98.76,69.85 99.90,70.01 101.58,70.02"/>
    <lane id=":3#4_4_2" index="2" disallow="pedestrian tram rail_urban rail rail_electric rail_fast ship" speed="17.88" length="7.35" width="3.50" shape="95.30,71.27 97.12,71.82 98.41,72.08 99.73,72.13 101.64,72.09"/>
    <lane id=":3#4_4_3" index="3" disallow="pedestrian tram rail_urban rail rail_electric rail_fast ship" speed="17.88" length="7.35" width="3.50" shape="94.19,74.59 96.37,75.25 97.90,75.56 99.47,75.64 101.74,75.58"/>
    <lane id=":3#4_4_4" index="4" disallow="pedestrian tram rail_urban rail rail_electric rail_fast ship" speed="17.88" length="7.35" width="3.50" shape="93.08,77.91 95.61,78.68 97.39,79.05 99.20,79.14 101.85,79.08"/>
    <lane id=":3#4_4_5" index="5" disallow="pedestrian tram rail_urban rail rail_electric rail_fast ship" speed="17.88" length="7.35" width="3.50" shape="91.97,81.23 94.85,82.10 96.87,82.53 98.94,82.65 101.95,82.58"/>
  </edge>
  <edge id=":3.begin_0" function="internal">
    <lane id=":3.begin_0_0" index="0" disallow="pedestrian tram rail_urban rail rail_electric rail_fast ship" speed="3.82" length="5.11" width="3.50" shape="-0.30,69.99 -1.44,68.91 -1.72,67.97 -1.15,67.19 0.30,66.55"/>
  </edge>
  <edge id=":7#1_0" function="internal">
    <lane id=":7#1_0_0" index="0" allow="pedestrian" speed="17.88" length="8.12" width="2.00" shape="167.66,88.87 165.32,88.67 163.75,88.13 162.17,87.62 159.83,87.48"/>
    <lane id=":7#1_0_1" index="1" disallow="all" speed="17.88" length="8.12" width="0.63" shape="167.62,87.55 165.27,87.35 163.69,86.82 162.11,86.31 159.76,86.17"/>
    <lane id=":7#1_0_2" index="2" disallow="pedestrian tram rail_urban rail rail_electric rail_fast ship" speed="17.88" length="8.12" width="3.50" shape="167.56,85.48 165.20,85.28 163.60,84.75 162.01,84.24 159.65,84.10"/>
    <lane id=":7#1_0_3" index="3" disallow="pedestrian tram rail_urban rail rail_electric rail_fast ship" speed="17.88" length="8.12" width="3.50" shape="167.46,81.98 165.07,81.79 163.46,81.26 161.85,80.74 159.46,80.61"/>
    <lane id=":7#1_0_4" index="4" disallow="pedestrian tram rail_urban rail rail_electric rail_fast ship" speed="17.88" length="8.12" width="3.50" shape="167.36,78.49 164.94,78.29 163.31,77.76 161.68,77.25 159.26,77.11"/>
  </edge>
  <edge id=":7#1_5" function="internal">
    <lane id=":7#1_5_0" index="0" allow="pedestrian" speed="17.88" length="8.26" width="2.00" shape="158.69,66.74 167.02,66.39"/>
    <lane id=":7#1_5_1" index="1" disallow="all" speed="17.88" length="8.26" width="0.63" shape="158.76,68.06 167.06,67.71"/>
    <lane id=":7#1_5_2" index="2" disallow="pedestrian tram rail_urban rail rail_electric rail_fast ship" speed="17.88" length="8.26" width="3.50" shape="158.88,70.12 167.12,69.77"/>
    <lane id=":7#1_5_3" index="3" disallow="pedestrian tram rail_urban rail rail_electric rail_fast ship" speed="17.88" length="8.26" width="3.50" shape="159.07,73.62 167.22,73.27"/>
  </edge>
  <edge id=":7#2_0" function="internal">
    <lane id=":7#2_0_0" index="0" allow="pedestrian" speed="17.88" length="2.97" width="2.00" shape="171.04,88.85 168.19,88.85"/>
    <lane id=":7#2_0_1" index="1" disallow="all" speed="17.88" length="2.97" width="0.63" shape="171.02,87.54 168.15,87.53"/>
    <lane id=":7#2_0_2" index="2" disallow="pedestrian tram rail_urban rail rail_electric rail_fast ship" speed="17.88" length="2.97" width="3.50" shape="170.98,85.47 168.10,85.47"/>
    <lane id=":7#2_0_3" index="3" disallow="pedestrian tram rail_urban rail rail_electric rail_fast ship" speed="17.88" length="2.97" width="3.50" shape="170.91,81.97 168.00,81.97"/>
    <lane id=":7#2_0_4" index="4" allow="emergency authority" speed="17.88" length="2.97" width="3.50" shape="170.87,79.33 169.97,79.20 169.38,78.89 168.79,78.59 167.90,78.47"/>
    <lane id=":7#2_0_5" index="5" allow="emergency authority" speed="17.88" length="2.97" width="1.72" shape="170.82,76.69 169.91,76.57 169.32,76.27 168.73,75.98 167.82,75.86"/>
  </edge>
  <edge id=":7#2_6" function="internal">
    <lane id=":7#2_6_0" index="0" allow="pedestrian" speed="17.88" length="3.04" width="2.00" shape="167.55,66.37 170.62,66.31"/>
    <lane id=":7#2_6_1" index="1" disallow="all" speed="17.88" length="3.04" width="0.63" shape="167.59,67.69 170.65,67.62"/>
    <lane id=":7#2_6_2" index="2" disallow="pedestrian tram rail_urban rail rail_electric rail_fast ship" speed="17.88" length="3.04" width="3.50" shape="167.65,69.76 170.69,69.69"/>
    <lane id=":7#2_6_3" index="3" disallow="pedestrian tram rail_urban rail rail_electric rail_fast ship" speed="17.88" length="3.04" width="3.50" shape="167.75,73.26 170.75,73.19"/>
  </edge>
  <edge id=":7#3_0" function="internal">
    <lane id=":7#3_0_0" index="0" allow="pedestrian" speed="17.88" length="8.03" width="2.00" shape="179.58,87.05 177.26,87.30 175.73,87.91 174.20,88.53 171.88,88.84"/>
    <lane id=":7#3_0_1" index="1" disallow="all" speed="17.88" length="8.03" width="0.63" shape="179.59,85.73 177.27,85.99 175.73,86.59 174.19,87.21 171.86,87.52"/>
    <lane id=":7#3_0_2" index="2" disallow="pedestrian tram rail_urban rail rail_electric rail_fast ship" speed="17.88" length="8.03" width="3.50" shape="179.62,83.67 177.28,83.92 175.72,84.52 174.17,85.14 171.83,85.46"/>
    <lane id=":7#3_0_3" index="3" disallow="pedestrian tram rail_urban rail rail_electric rail_fast ship" speed="17.88" length="8.03" width="3.50" shape="179.66,80.17 177.29,80.42 175.72,81.02 174.14,81.64 171.78,81.96"/>
    <lane id=":7#3_0_4" index="4" disallow="pedestrian tram rail_urban rail rail_electric rail_fast ship" speed="17.88" length="8.03" width="3.50" shape="179.70,76.67 171.70,76.67"/>
  </edge>
  <edge id=":7#3_5" function="internal">
    <lane id=":7#3_5_0" index="0" allow="pedestrian" speed="17.88" length="8.20" width="2.00" shape="171.54,66.29 179.82,66.28"/>
    <lane id=":7#3_5_1" index="1" disallow="all" speed="17.88" length="8.20" width="0.63" shape="171.56,67.61 179.80,67.60"/>
    <lane id=":7#3_5_2" index="2" disallow="pedestrian tram rail_urban rail rail_electric rail_fast ship" speed="17.88" length="8.20" width="3.50" shape="171.59,69.68 179.78,69.67"/>
    <lane id=":7#3_5_3" index="3" disallow="pedestrian tram rail_urban rail rail_electric rail_fast ship" speed="17.88" length="8.20" width="3.50" shape="171.64,73.17 179.74,73.17"/>
  </edge>
  <edge id=":7.end_0" function="internal">
    <lane id=":7.end_0_0" index="0" disallow="pedestrian tram rail_urban rail rail_electric rail_fast ship" speed="3.82" length="5.11" width="3.50" shape="266.16,81.53 267.36,82.55 267.70,83.47 267.16,84.29 265.76,85.01"/>
  </edge>
  <edge id="-0" from="0.begin" to="10" priority="1" type="sidewalk|shoulder|driving" shape="123.27,154.43 123.51,153.46 123.74,152.49 123.96,151.51 124.19,150.54 124.41,149.56 124.62,148.58 124.84,147.61 125.04,146.63 125.25,145.65 125.45,144.67 125.65,143.69 125.84,142.71 126.03,141.73 126.21,140.74 126.39,139.76 126.57,138.78 126.74,137.79 126.91,136.81 127.08,135.82 127.24,134.83 127.39,133.85 127.55,132.86 127.70,131.87 127.84,130.88 127.98,129.89 128.12,128.90 128.25,127.91 128.38,126.92 128.51,125.92 128.63,124.93 128.75,123.94 128.86,122.94 128.97,121.95 129.08,120.96 129.18,119.96 129.28,118.97 129.37,117.97 129.46,116.97 129.54,115.98 129.63,114.98 129.70,113.98 129.78,112.99 129.85,111.99 129.91,110.99 129.98,109.99 130.03,109.00 130.09,108.00 130.14,107.00 130.18,106.00 130.22,105.00 130.26,104.00 130.30,103.00 130.33,102.00 130.35,101.00 130.37,100.00 130.39,99.00 130.41,98.00 130.42,97.00 130.42,96.00 130.42,95.03">
    <lane id="-0_0" index="0" allow="pedestrian" speed="17.88" length="59.13" width="2.00" shape="118.28,153.22 118.51,152.26 118.74,151.31 118.96,150.35 119.18,149.40 119.40,148.44 119.61,147.49 119.82,146.53 120.02,145.57 120.22,144.61 120.42,143.65 120.61,142.69 120.80,141.73 120.98,140.77 121.16,139.81 121.34,138.84 121.51,137.88 121.68,136.91 121.85,135.95 122.01,134.98 122.17,134.02 122.32,133.05 122.47,132.08 122.62,131.11 122.76,130.14 122.90,129.17 123.03,128.20 123.16,127.23 123.29,126.26 123.41,125.29 123.53,124.32 123.65,123.34 123.76,122.37 123.87,121.40 123.97,120.42 124.07,119.45 124.16,118.47 124.26,117.50 124.34,116.52 124.43,115.55 124.51,114.57 124.58,113.60 124.66,112.62 124.72,111.64 124.79,110.66 124.85,109.69 124.91,108.71 124.96,107.73 125.01,106.75 125.05,105.77 125.09,104.80 125.13,103.82 125.16,102.84 125.19,101.86 125.22,100.88 125.24,99.90 125.26,98.92 125.27,97.94 125.28,96.96 125.29,95.98 125.29,95.02" type="sidewalk">
      <param key="origId" value="0_-3"/>
    </lane>