<?xml version="1.0" encoding="UTF-8"?>

<!-- generated on 2022-08-26 15:59:01 by Eclipse SUMO netedit Version 1.13.0
<configuration xmlns:xsi="http://www.w3.org/2001/XMLSchema-instance" xsi:noNamespaceSchemaLocation="http://sumo.dlr.de/xsd/netconvertConfiguration.xsd">

    <input>
        <sumo-net-file value="C:\Users\86135\Desktop\carla-0.9.10\Co-Simulation\Sumo\util\net.net.xml"/>
    </input>

    <output>
        <output-file value="C:\Users\86135\Desktop\carla-0.9.10\Co-Simulation\Sumo\util\net.net.xml"/>
    </output>

    <processing>
        <geometry.min-radius.fix.railways value="false"/>
        <geometry.max-grade.fix value="false"/>
        <offset.disable-normalization value="true"/>
        <lefthand value="false"/>
    </processing>

    <junctions>
        <no-turnarounds value="true"/>
        <junctions.corner-detail value="5"/>
        <junctions.limit-turn-speed value="5.5"/>
        <rectangular-lane-cut value="true"/>
    </junctions>

    <pedestrian>
        <walkingareas value="false"/>
    </pedestrian>

    <report>
        <aggregate-warnings value="5"/>
    </report>

</configuration>
-->

<net version="1.9" junctionCornerDetail="5" rectangularLaneCut="true" limitTurnSpeed="5.50" xmlns:xsi="http://www.w3.org/2001/XMLSchema-instance" xsi:noNamespaceSchemaLocation="http://sumo.dlr.de/xsd/net_file.xsd">

    <location netOffset="319.62,102.94" convBoundary="0.00,0.00,477.41,406.73" origBoundary="-319.62,-102.89,157.62,303.79" projParameter="!"/>

    <type id="bidirectional" priority="1" speed="1.39" disallow="pedestrian tram rail_urban rail rail_electric rail_fast ship" width="3.65"/>
    <type id="biking" priority="-1" speed="5.56" allow="bicycle" width="1.50"/>
    <type id="border" priority="0" speed="1.39" disallow="all" discard="1" width="0.10"/>
    <type id="driving" priority="1" speed="13.89" disallow="pedestrian tram rail_urban rail rail_electric rail_fast ship" width="3.65"/>
    <type id="entry" priority="1" speed="22.22" disallow="pedestrian tram rail_urban rail rail_electric rail_fast ship" width="3.65"/>
    <type id="exit" priority="1" speed="22.22" disallow="pedestrian tram rail_urban rail rail_electric rail_fast ship" width="3.65"/>
    <type id="median" priority="0" speed="1.39" disallow="all" discard="1" width="0.10"/>
    <type id="mwyEntry" priority="1" speed="22.22" allow="private emergency authority army vip passenger hov taxi bus coach delivery truck trailer motorcycle evehicle custom1 custom2" width="3.65"/>
    <type id="mwyExit" priority="1" speed="22.22" allow="private emergency authority army vip passenger hov taxi bus coach delivery truck trailer motorcycle evehicle custom1 custom2" width="3.65"/>
    <type id="none" priority="0" speed="1.39" disallow="all" discard="1" width="1.00"/>
    <type id="offRamp" priority="1" speed="22.22" allow="private emergency authority army vip passenger hov taxi bus coach delivery truck trailer motorcycle evehicle custom1 custom2" width="3.65"/>
    <type id="onRamp" priority="1" speed="22.22" allow="private emergency authority army vip passenger hov taxi bus coach delivery truck trailer motorcycle evehicle custom1 custom2" width="3.65"/>
    <type id="parking" priority="1" speed="1.39" disallow="pedestrian tram rail_urban rail rail_electric rail_fast ship" width="2.50"/>
    <type id="rail" priority="3" speed="33.33" allow="rail_urban rail rail_electric rail_fast" width="3.65"/>
    <type id="restricted" priority="0" speed="13.89" disallow="all" width="3.65"/>
    <type id="roadWorks" priority="0" speed="1.39" allow="authority" width="3.65"/>
    <type id="shoulder" priority="0" speed="1.39" disallow="all" discard="1" width="1.00"/>
    <type id="sidewalk" priority="-2" speed="2.78" allow="pedestrian" width="2.50"/>
    <type id="special1" priority="1" speed="22.22" allow="custom1" discard="1" width="3.65"/>
    <type id="special2" priority="1" speed="22.22" allow="custom2" discard="1" width="3.65"/>
    <type id="special3" priority="1" speed="22.22" allow="custom1 custom2" discard="1" width="3.65"/>
    <type id="stop" priority="1" speed="13.89" disallow="pedestrian tram rail_urban rail rail_electric rail_fast ship" width="3.65"/>
    <type id="tram" priority="2" speed="13.89" allow="tram" width="3.65"/>

    <edge id=":12.0_0" function="internal">
        <lane id=":12.0_0_0" index="0" allow="pedestrian" speed="22.35" length="2.79" width="2.00" shape="49.26,224.88 46.51,224.75"/>
        <lane id=":12.0_0_1" index="1" disallow="all" speed="22.35" length="2.79" width="0.63" shape="49.32,223.56 46.56,223.43"/>
        <lane id=":12.0_0_2" index="2" disallow="all" speed="22.35" length="2.79" width="2.50" shape="49.40,222.00 46.63,221.87"/>
        <lane id=":12.0_0_3" index="3" disallow="pedestrian tram rail_urban rail rail_electric rail_fast ship" speed="22.35" length="2.79" width="3.50" shape="49.55,219.00 46.75,218.87"/>
        <lane id=":12.0_0_4" index="4" disallow="pedestrian tram rail_urban rail rail_electric rail_fast ship" speed="22.35" length="2.79" width="3.50" shape="49.72,215.51 46.89,215.37"/>
    </edge>
    <edge id=":12.0_5" function="internal">
        <lane id=":12.0_5_0" index="0" allow="pedestrian" speed="22.35" length="3.75" width="2.00" shape="47.56,199.01 50.69,195.45"/>
        <lane id=":12.0_5_1" index="1" disallow="all" speed="22.35" length="3.75" width="0.64" shape="47.51,200.32 50.63,196.77"/>
        <lane id=":12.0_5_2" index="2" disallow="all" speed="22.35" length="3.75" width="6.19" shape="47.44,201.88 50.46,200.18"/>
        <lane id=":12.0_5_3" index="3" disallow="pedestrian tram rail_urban rail rail_electric rail_fast ship" speed="22.35" length="3.75" width="3.50" shape="47.32,204.88 50.23,205.02"/>
        <lane id=":12.0_5_4" index="4" disallow="pedestrian tram rail_urban rail rail_electric rail_fast ship" speed="22.35" length="3.75" width="3.50" shape="47.18,208.38 50.06,208.52"/>
    </edge>
    <edge id=":15_0" function="internal">
        <lane id=":15_0_0" index="0" allow="pedestrian" speed="5.66" length="7.12" width="2.00" shape="283.83,236.31 281.52,236.42 279.86,237.01 278.85,238.07 278.49,239.61">
            <param key="origId" value="18_-2"/>
        </lane>
        <lane id=":15_0_1" index="1" disallow="all" speed="6.24" length="9.28" width="0.63" shape="283.89,235.00 280.99,235.17 278.90,235.98 277.63,237.46 277.17,239.59">
            <param key="origId" value="18_-1"/>
        </lane>
    </edge>
    <edge id=":15_2" function="internal">
        <lane id=":15_2_0" index="0" disallow="all" speed="22.35" length="35.51" width="2.50" shape="283.97,233.44 248.50,231.71">
            <param key="origId" value="40_4"/>
        </lane>
    </edge>
    <edge id=":15_3" function="internal">
        <lane id=":15_3_0" index="0" disallow="pedestrian tram rail_urban rail rail_electric rail_fast ship" speed="8.59" length="5.42" width="3.50" shape="284.11,230.44 279.15,230.80 278.75,230.98">
            <param key="origId" value="16_1"/>
        </lane>
    </edge>
    <edge id=":15_4" function="internal">
        <lane id=":15_4_0" index="0" disallow="pedestrian tram rail_urban rail rail_electric rail_fast ship" speed="22.35" length="35.51" width="3.50" shape="284.11,230.44 248.64,228.71">
            <param key="origId" value="40_3"/>
            <param key="signalID" value="148"/>
        </lane>
        <lane id=":15_4_1" index="1" disallow="pedestrian tram rail_urban rail rail_electric rail_fast ship" speed="22.35" length="35.51" width="3.50" shape="284.28,226.94 248.81,225.21">
            <param key="origId" value="40_2"/>
            <param key="signalID" value="147"/>
        </lane>
    </edge>
    <edge id=":15_6" function="internal">
        <lane id=":15_6_0" index="0" disallow="pedestrian tram rail_urban rail rail_electric rail_fast ship" speed="12.77" length="15.27" width="3.50" shape="284.28,226.94 274.68,225.04 270.15,221.96">
            <param key="origId" value="45_-1"/>
        </lane>
    </edge>
    <edge id=":15_7" function="internal">
        <lane id=":15_7_0" index="0" disallow="all" speed="22.35" length="35.51" width="3.50" shape="284.45,223.45 248.98,221.72">
            <param key="origId" value="40_1"/>
        </lane>
    </edge>
    <edge id=":15_29" function="internal">
        <lane id=":15_29_0" index="0" disallow="pedestrian tram rail_urban rail rail_electric rail_fast ship" speed="8.59" length="11.36" width="3.50" shape="278.75,230.98 275.58,232.43 273.40,235.33 272.61,239.50">
            <param key="origId" value="16_1"/>
        </lane>
    </edge>
    <edge id=":15_30" function="internal">
        <lane id=":15_30_0" index="0" disallow="pedestrian tram rail_urban rail rail_electric rail_fast ship" speed="12.77" length="21.36" width="3.50" shape="270.15,221.96 267.86,220.40 263.83,213.03 262.59,202.91">
            <param key="origId" value="45_-1"/>
        </lane>
    </edge>
    <edge id=":15_8" function="internal">
        <lane id=":15_8_0" index="0" allow="pedestrian" speed="6.27" length="8.47" width="2.00" shape="281.95,203.18 282.11,206.21 282.69,208.40 283.69,209.74 285.10,210.24">
            <param key="origId" value="41_2"/>
        </lane>
        <lane id=":15_8_1" index="1" disallow="all" speed="6.80" length="10.50" width="0.63" shape="280.63,203.16 280.87,206.75 281.68,209.35 283.07,210.95 285.03,211.56">
            <param key="origId" value="41_1"/>
        </lane>
    </edge>
    <edge id=":15_10" function="internal">
        <lane id=":15_10_0" index="0" disallow="all" speed="22.35" length="36.58" width="2.50" shape="279.07,203.14 275.61,239.56">
            <param key="origId" value="81_4"/>
        </lane>
    </edge>
    <edge id=":15_11" function="internal">
        <lane id=":15_11_0" index="0" disallow="pedestrian tram rail_urban rail rail_electric rail_fast ship" speed="8.97" length="3.40" width="3.50" shape="276.33,203.10 276.61,206.49">
            <param key="origId" value="43_1"/>
        </lane>
    </edge>
    <edge id=":15_12" function="internal">
        <lane id=":15_12_0" index="0" disallow="pedestrian tram rail_urban rail rail_electric rail_fast ship" speed="22.35" length="36.44" width="3.50" shape="273.09,203.06 272.61,239.50">
            <param key="origId" value="81_2"/>
        </lane>
        <lane id=":15_12_1" index="1" disallow="pedestrian tram rail_urban rail rail_electric rail_fast ship" speed="22.35" length="36.44" width="3.50" shape="269.59,203.01 269.11,239.43">
            <param key="origId" value="81_1"/>
            <param key="signalID" value="158"/>
        </lane>
    </edge>
    <edge id=":15_14" function="internal">
        <lane id=":15_14_0" index="0" disallow="pedestrian tram rail_urban rail rail_electric rail_fast ship" speed="11.68" length="8.12" width="3.50" shape="266.09,202.96 265.13,211.03">
            <param key="origId" value="83_1"/>
            <param key="signalID" value="159"/>
        </lane>
    </edge>
    <edge id=":15_31" function="internal">
        <lane id=":15_31_0" index="0" disallow="pedestrian tram rail_urban rail rail_electric rail_fast ship" speed="8.97" length="14.31" width="3.50" shape="276.61,206.49 276.79,208.79 278.36,212.91 281.03,215.46 284.80,216.46">
            <param key="origId" value="43_1"/>
        </lane>
    </edge>
    <edge id=":15_32" function="internal">
        <lane id=":15_32_0" index="0" disallow="pedestrian tram rail_urban rail rail_electric rail_fast ship" speed="11.68" length="24.02" width="3.50" shape="265.13,211.03 264.89,213.01 261.62,220.06 256.26,224.13 248.81,225.21">
            <param key="origId" value="83_1"/>
            <param key="signalID" value="159"/>
        </lane>
    </edge>
    <edge id=":15_15" function="internal">
        <lane id=":15_15_0" index="0" allow="pedestrian" speed="4.71" length="4.75" width="2.00" shape="249.79,205.16 251.28,205.07 252.34,204.65 252.99,203.89 253.21,202.79">
            <param key="origId" value="92_-2"/>
        </lane>
        <lane id=":15_15_1" index="1" disallow="all" speed="5.41" length="6.92" width="0.63" shape="249.73,206.48 251.81,206.33 253.30,205.67 254.21,204.50 254.53,202.81">
            <param key="origId" value="92_-1"/>
        </lane>
    </edge>
    <edge id=":15_17" function="internal">
        <lane id=":15_17_0" index="0" disallow="all" speed="22.35" length="35.55" width="2.84" shape="249.56,209.89 284.95,213.29">
            <param key="origId" value="39_-3"/>
        </lane>
    </edge>
    <edge id=":15_18" function="internal">
        <lane id=":15_18_0" index="0" disallow="pedestrian tram rail_urban rail rail_electric rail_fast ship" speed="8.76" length="6.50" width="3.50" shape="249.33,214.73 253.54,214.16 255.37,212.85">
            <param key="origId" value="93_-1"/>
        </lane>
    </edge>
    <edge id=":15_19" function="internal">
        <lane id=":15_19_0" index="0" disallow="pedestrian tram rail_urban rail rail_electric rail_fast ship" speed="22.35" length="35.51" width="3.50" shape="249.33,214.73 284.80,216.46">
            <param key="origId" value="39_-2"/>
            <param key="signalID" value="154"/>
        </lane>
        <lane id=":15_19_1" index="1" disallow="pedestrian tram rail_urban rail rail_electric rail_fast ship" speed="22.35" length="35.51" width="3.50" shape="249.16,218.22 284.63,219.95">
            <param key="origId" value="39_-1"/>
            <param key="signalID" value="153"/>
        </lane>
    </edge>
    <edge id=":15_21" function="internal">
        <lane id=":15_21_0" index="0" disallow="pedestrian tram rail_urban rail rail_electric rail_fast ship" speed="12.11" length="6.14" width="3.50" shape="249.16,218.22 255.19,219.38">
            <param key="origId" value="56_-1"/>
            <param key="signalID" value="155"/>
        </lane>
    </edge>
    <edge id=":15_33" function="internal">
        <lane id=":15_33_0" index="0" disallow="pedestrian tram rail_urban rail rail_electric rail_fast ship" speed="8.76" length="11.07" width="3.50" shape="255.37,212.85 256.57,212.00 258.42,208.23 259.09,202.87">
            <param key="origId" value="93_-1"/>
        </lane>
    </edge>
    <edge id=":15_34" function="internal">
        <lane id=":15_34_0" index="0" disallow="pedestrian tram rail_urban rail rail_electric rail_fast ship" speed="12.11" length="26.85" width="3.50" shape="255.19,219.38 258.03,219.92 264.31,224.02 268.01,230.53 269.11,239.43">
            <param key="origId" value="56_-1"/>
            <param key="signalID" value="155"/>
        </lane>
    </edge>
    <edge id=":15_22" function="internal">
        <lane id=":15_22_0" index="0" allow="pedestrian" speed="5.78" length="7.14" width="2.00" shape="252.73,239.12 252.49,237.22 251.68,235.83 250.30,234.95 248.36,234.58">
            <param key="origId" value="63_-2"/>
        </lane>
        <lane id=":15_22_1" index="1" disallow="all" speed="6.36" length="9.22" width="0.63" shape="254.05,239.15 253.74,236.68 252.69,234.88 250.92,233.74 248.42,233.27">
            <param key="origId" value="63_-1"/>
        </lane>
    </edge>
    <edge id=":15_24" function="internal">
        <lane id=":15_24_0" index="0" disallow="all" speed="22.35" length="36.35" width="2.50" shape="255.61,239.18 256.09,202.83">
            <param key="origId" value="82_-4"/>
        </lane>
    </edge>
    <edge id=":15_25" function="internal">
        <lane id=":15_25_0" index="0" disallow="pedestrian tram rail_urban rail rail_electric rail_fast ship" speed="8.68" length="4.81" width="3.50" shape="258.61,239.23 258.06,234.81 257.88,234.50">
            <param key="origId" value="53_-1"/>
        </lane>
    </edge>
    <edge id=":15_26" function="internal">
        <lane id=":15_26_0" index="0" disallow="pedestrian tram rail_urban rail rail_electric rail_fast ship" speed="22.35" length="36.38" width="3.50" shape="258.61,239.23 259.09,202.87">
            <param key="origId" value="82_-3"/>
            <param key="signalID" value="152"/>
        </lane>
        <lane id=":15_26_1" index="1" disallow="pedestrian tram rail_urban rail rail_electric rail_fast ship" speed="22.35" length="36.38" width="3.50" shape="262.11,239.30 262.59,202.91">
            <param key="origId" value="82_-2"/>
            <param key="signalID" value="151"/>
        </lane>
    </edge>
    <edge id=":15_28" function="internal">
        <lane id=":15_28_0" index="0" disallow="pedestrian tram rail_urban rail rail_electric rail_fast ship" speed="11.53" length="6.30" width="3.50" shape="265.61,239.37 266.55,233.14">
            <param key="origId" value="20_-1"/>
            <param key="signalID" value="160"/>
        </lane>
    </edge>
    <edge id=":15_35" function="internal">
        <lane id=":15_35_0" index="0" disallow="pedestrian tram rail_urban rail rail_electric rail_fast ship" speed="8.68" length="11.61" width="3.50" shape="257.88,234.50 256.22,231.59 253.08,229.55 248.64,228.71">
            <param key="origId" value="53_-1"/>
        </lane>
    </edge>
    <edge id=":15_36" function="internal">
        <lane id=":15_36_0" index="0" disallow="pedestrian tram rail_urban rail rail_electric rail_fast ship" speed="11.53" length="24.88" width="3.50" shape="266.55,233.14 266.94,230.53 270.56,224.35 276.45,220.83 284.63,219.95">
            <param key="origId" value="20_-1"/>
            <param key="signalID" value="160"/>
        </lane>
    </edge>
    <edge id=":3#1_0" function="internal">
        <lane id=":3#1_0_0" index="0" allow="pedestrian" speed="9.55" length="2.96" width="2.00" shape="278.30,259.05 278.77,254.23"/>
        <lane id=":3#1_0_1" index="1" disallow="all" speed="8.73" length="2.96" width="0.63" shape="277.20,258.33 277.45,254.21"/>
        <lane id=":3#1_0_2" index="2" disallow="all" speed="7.97" length="2.96" width="2.50" shape="275.89,257.47 275.89,254.18"/>
        <lane id=":3#1_0_3" index="3" disallow="pedestrian tram rail_urban rail rail_electric rail_fast ship" speed="6.09" length="2.96" width="3.50" shape="273.39,255.82 272.89,254.12"/>
        <lane id=":3#1_0_4" index="4" disallow="pedestrian tram rail_urban rail rail_electric rail_fast ship" speed="4.96" length="2.96" width="3.50" shape="270.46,253.90 269.39,254.06"/>
        <lane id=":3#1_0_5" index="5" disallow="all" speed="7.23" length="2.96" width="3.50" shape="267.54,251.98 265.89,253.99"/>
    </edge>
    <edge id=":3#1_6" function="internal">
        <lane id=":3#1_6_0" index="0" allow="pedestrian" speed="22.35" length="4.09" width="2.00" shape="254.80,247.90 255.19,246.81 255.06,245.92 254.94,245.03 255.34,243.95"/>
        <lane id=":3#1_6_1" index="1" disallow="all" speed="22.35" length="4.09" width="0.63" shape="255.91,248.62 256.29,247.53 256.17,246.64 256.04,245.75 256.43,244.67"/>
        <lane id=":3#1_6_2" index="2" disallow="all" speed="22.35" length="4.09" width="2.50" shape="257.22,249.47 257.60,248.38 257.48,247.50 257.35,246.61 257.74,245.53"/>
        <lane id=":3#1_6_3" index="3" disallow="pedestrian tram rail_urban rail rail_electric rail_fast ship" speed="22.35" length="4.09" width="3.50" shape="259.74,251.10 260.12,250.02 259.99,249.14 259.86,248.25 260.25,247.18"/>
        <lane id=":3#1_6_4" index="4" disallow="pedestrian tram rail_urban rail rail_electric rail_fast ship" speed="22.35" length="4.09" width="3.50" shape="262.67,253.01 263.05,251.93 262.92,251.05 262.79,250.17 263.17,249.10"/>
    </edge>
    <edge id=":3#2_0" function="internal">
        <lane id=":3#2_0_0" index="0" allow="pedestrian" speed="22.35" length="2.57" width="2.00" shape="275.85,259.63 278.41,258.89"/>
        <lane id=":3#2_0_1" index="1" disallow="all" speed="22.35" length="2.57" width="0.63" shape="274.75,258.90 277.31,258.16"/>
        <lane id=":3#2_0_2" index="2" disallow="all" speed="22.35" length="2.57" width="2.50" shape="273.45,258.04 276.00,257.30"/>
        <lane id=":3#2_0_3" index="3" disallow="pedestrian tram rail_urban rail rail_electric rail_fast ship" speed="22.35" length="2.57" width="3.50" shape="270.95,256.38 273.50,255.66"/>
        <lane id=":3#2_0_4" index="4" disallow="pedestrian tram rail_urban rail rail_electric rail_fast ship" speed="22.35" length="2.57" width="3.50" shape="268.03,254.45 270.57,253.73"/>
        <lane id=":3#2_0_5" index="5" disallow="all" speed="22.35" length="2.57" width="3.50" shape="265.83,252.99 267.65,251.81"/>
    </edge>
    <edge id=":3#2_6" function="internal">
        <lane id=":3#2_6_0" index="0" allow="pedestrian" speed="22.35" length="2.56" width="2.00" shape="255.44,243.78 252.90,244.42"/>
        <lane id=":3#2_6_1" index="1" disallow="all" speed="22.35" length="2.56" width="0.63" shape="256.54,244.50 253.99,245.15"/>
        <lane id=":3#2_6_2" index="2" disallow="all" speed="22.35" length="2.56" width="2.50" shape="257.85,245.36 255.30,246.01"/>
        <lane id=":3#2_6_3" index="3" disallow="pedestrian tram rail_urban rail rail_electric rail_fast ship" speed="22.35" length="2.56" width="3.50" shape="260.36,247.01 257.80,247.67"/>
        <lane id=":3#2_6_4" index="4" disallow="pedestrian tram rail_urban rail rail_electric rail_fast ship" speed="22.35" length="2.56" width="3.50" shape="263.28,248.93 260.72,249.60"/>
        <lane id=":3#2_6_5" index="5" allow="emergency authority" speed="22.35" length="2.56" width="3.50" shape="265.47,250.37 263.64,251.54"/>
    </edge>
    <edge id=":3#3_0" function="internal">
        <lane id=":3#3_0_0" index="0" allow="pedestrian" speed="17.38" length="14.36" width="2.00" shape="278.41,243.54 278.59,248.48 278.80,252.00 278.20,255.27 275.96,259.46"/>
        <lane id=":3#3_0_1" index="1" disallow="all" speed="16.93" length="14.36" width="0.63" shape="277.10,243.51 277.28,248.23 277.52,251.60 276.98,254.73 274.86,258.73"/>
        <lane id=":3#3_0_2" index="2" disallow="all" speed="16.53" length="14.36" width="2.50" shape="275.53,243.48 275.73,247.94 276.00,251.13 275.54,254.09 273.56,257.87"/>
        <lane id=":3#3_0_3" index="3" disallow="pedestrian tram rail_urban rail rail_electric rail_fast ship" speed="15.63" length="14.36" width="3.50" shape="272.53,243.43 272.75,247.38 273.08,250.22 272.77,252.86 271.06,256.21"/>
        <lane id=":3#3_0_4" index="4" disallow="pedestrian tram rail_urban rail rail_electric rail_fast ship" speed="14.46" length="14.36" width="3.50" shape="269.03,243.36 269.28,246.73 269.68,249.16 269.54,251.42 268.14,254.28"/>
    </edge>
    <edge id=":3#3_5" function="internal">
        <lane id=":3#3_5_0" index="0" allow="pedestrian" speed="5.20" length="4.28" width="2.00" shape="253.01,244.26 253.10,243.94 252.96,243.69 252.76,243.43 252.66,243.05"/>
        <lane id=":3#3_5_1" index="1" disallow="all" speed="6.08" length="4.28" width="0.63" shape="254.10,244.98 254.30,244.48 254.23,244.09 254.06,243.66 253.97,243.07"/>
        <lane id=":3#3_5_2" index="2" disallow="all" speed="7.40" length="4.28" width="2.50" shape="255.41,245.85 255.75,245.13 255.75,244.56 255.61,243.95 255.54,243.10"/>
        <lane id=":3#3_5_3" index="3" disallow="pedestrian tram rail_urban rail rail_electric rail_fast ship" speed="9.29" length="4.28" width="3.50" shape="257.91,247.50 258.51,246.36 258.66,245.47 258.59,244.51 258.54,243.16"/>
        <lane id=":3#3_5_4" index="4" disallow="pedestrian tram rail_urban rail rail_electric rail_fast ship" speed="11.05" length="4.28" width="3.50" shape="260.83,249.44 261.75,247.80 262.06,246.53 262.07,245.16 262.04,243.23"/>
        <lane id=":3#3_5_5" index="5" disallow="pedestrian tram rail_urban rail rail_electric rail_fast ship" speed="12.58" length="4.28" width="3.50" shape="263.75,251.37 264.98,249.23 265.47,247.59 265.54,245.81 265.54,243.29"/>
    </edge>
    <edge id=":6#1_0" function="internal">
        <lane id=":6#1_0_0" index="0" allow="pedestrian" speed="22.35" length="2.09" width="2.00" shape="280.87,193.57 282.05,195.47"/>
        <lane id=":6#1_0_1" index="1" disallow="all" speed="22.35" length="2.09" width="0.63" shape="279.55,193.55 280.74,195.45"/>
        <lane id=":6#1_0_2" index="2" disallow="all" speed="22.35" length="2.09" width="2.50" shape="277.99,193.52 279.17,195.43"/>
        <lane id=":6#1_0_3" index="3" allow="emergency authority" speed="22.35" length="2.09" width="2.98" shape="275.85,193.48 275.94,194.06 276.14,194.44 276.34,194.82 276.43,195.40"/>
        <lane id=":6#1_0_4" index="4" disallow="pedestrian tram rail_urban rail rail_electric rail_fast ship" speed="22.35" length="2.09" width="3.50" shape="273.22,193.44 273.19,195.37"/>
        <lane id=":6#1_0_5" index="5" disallow="pedestrian tram rail_urban rail rail_electric rail_fast ship" speed="22.35" length="2.09" width="3.50" shape="269.72,193.37 269.69,195.33"/>
        <lane id=":6#1_0_6" index="6" disallow="pedestrian tram rail_urban rail rail_electric rail_fast ship" speed="22.35" length="2.09" width="3.50" shape="266.22,193.31 266.19,195.29"/>
    </edge>
    <edge id=":6#1_7" function="internal">
        <lane id=":6#1_7_0" index="0" allow="pedestrian" speed="22.35" length="2.03" width="2.00" shape="253.31,195.14 253.34,193.09"/>
        <lane id=":6#1_7_1" index="1" disallow="all" speed="22.35" length="2.03" width="0.63" shape="254.63,195.16 254.65,193.11"/>
        <lane id=":6#1_7_2" index="2" disallow="all" speed="22.35" length="2.03" width="2.50" shape="256.19,195.17 256.22,193.14"/>
        <lane id=":6#1_7_3" index="3" disallow="pedestrian tram rail_urban rail rail_electric rail_fast ship" speed="22.35" length="2.03" width="3.50" shape="259.19,195.21 259.22,193.19"/>
        <lane id=":6#1_7_4" index="4" disallow="pedestrian tram rail_urban rail rail_electric rail_fast ship" speed="22.35" length="2.03" width="3.50" shape="262.69,195.25 262.72,193.25"/>
    </edge>
    <edge id=":6#2_0" function="internal">
        <lane id=":6#2_0_0" index="0" allow="pedestrian" speed="22.35" length="0.63" width="2.00" shape="280.09,192.92 280.87,193.37"/>
        <lane id=":6#2_0_1" index="1" disallow="all" speed="22.35" length="0.63" width="0.63" shape="278.77,192.91 279.55,193.35"/>
        <lane id=":6#2_0_2" index="2" disallow="all" speed="22.35" length="0.63" width="2.50" shape="277.21,192.89 277.99,193.32"/>
        <lane id=":6#2_0_3" index="3" allow="emergency authority" speed="22.35" length="0.63" width="1.77" shape="275.47,192.87 275.86,193.28"/>
        <lane id=":6#2_0_4" index="4" disallow="pedestrian tram rail_urban rail rail_electric rail_fast ship" speed="22.35" length="0.63" width="3.50" shape="273.23,192.84 273.22,193.24"/>
        <lane id=":6#2_0_5" index="5" disallow="pedestrian tram rail_urban rail rail_electric rail_fast ship" speed="22.35" length="0.63" width="3.50" shape="269.73,192.80 269.72,193.17"/>
        <lane id=":6#2_0_6" index="6" disallow="pedestrian tram rail_urban rail rail_electric rail_fast ship" speed="22.35" length="0.63" width="3.50" shape="266.23,192.76 266.22,193.11"/>
    </edge>
    <edge id=":6#2_7" function="internal">
        <lane id=":6#2_7_0" index="0" allow="pedestrian" speed="22.35" length="0.31" width="2.00" shape="253.34,192.89 253.35,192.60"/>
        <lane id=":6#2_7_1" index="1" disallow="all" speed="22.35" length="0.31" width="0.63" shape="254.66,192.91 254.66,192.62"/>
        <lane id=":6#2_7_2" index="2" disallow="all" speed="22.35" length="0.31" width="2.50" shape="256.22,192.94 256.23,192.63"/>
        <lane id=":6#2_7_3" index="3" disallow="pedestrian tram rail_urban rail rail_electric rail_fast ship" speed="22.35" length="0.31" width="3.50" shape="259.22,192.99 259.23,192.67"/>
        <lane id=":6#2_7_4" index="4" disallow="pedestrian tram rail_urban rail rail_electric rail_fast ship" speed="22.35" length="0.31" width="3.50" shape="262.72,193.05 262.73,192.71"/>
    </edge>
    <edge id=":6#3_0" function="internal">
        <lane id=":6#3_0_0" index="0" allow="pedestrian" speed="22.35" length="4.31" width="2.00" shape="279.16,188.48 279.30,189.76 279.63,190.60 279.95,191.45 280.09,192.72"/>
        <lane id=":6#3_0_1" index="1" disallow="all" speed="22.35" length="4.31" width="0.63" shape="277.85,188.47 277.98,189.74 278.31,190.59 278.64,191.43 278.77,192.71"/>
        <lane id=":6#3_0_2" index="2" disallow="all" speed="22.35" length="4.31" width="2.50" shape="276.28,188.45 276.42,189.72 276.75,190.57 277.07,191.41 277.21,192.69"/>
        <lane id=":6#3_0_3" index="3" disallow="pedestrian tram rail_urban rail rail_electric rail_fast ship" speed="22.35" length="4.31" width="3.50" shape="273.28,188.41 273.23,192.64"/>
        <lane id=":6#3_0_4" index="4" disallow="pedestrian tram rail_urban rail rail_electric rail_fast ship" speed="22.35" length="4.31" width="3.50" shape="269.78,188.36 269.73,192.60"/>
        <lane id=":6#3_0_5" index="5" disallow="pedestrian tram rail_urban rail rail_electric rail_fast ship" speed="22.35" length="4.31" width="3.50" shape="266.87,188.32 266.77,189.59 266.55,190.44 266.34,191.29 266.23,192.56"/>
        <lane id=":6#3_0_6" index="6" disallow="all" speed="22.35" length="4.31" width="0.00" shape="265.12,188.30 265.02,189.57 264.80,190.42 264.59,191.27 264.48,192.53"/>
    </edge>
    <edge id=":6#3_7" function="internal">
        <lane id=":6#3_7_0" index="0" allow="pedestrian" speed="22.35" length="4.25" width="2.00" shape="253.35,192.40 253.40,188.15"/>
        <lane id=":6#3_7_1" index="1" disallow="all" speed="22.35" length="4.25" width="0.63" shape="254.67,192.42 254.72,188.17"/>
        <lane id=":6#3_7_2" index="2" disallow="all" speed="22.35" length="4.25" width="2.50" shape="256.23,192.43 256.28,188.19"/>
        <lane id=":6#3_7_3" index="3" disallow="pedestrian tram rail_urban rail rail_electric rail_fast ship" speed="22.35" length="4.25" width="3.50" shape="259.23,192.47 259.28,188.23"/>
        <lane id=":6#3_7_4" index="4" disallow="pedestrian tram rail_urban rail rail_electric rail_fast ship" speed="22.35" length="4.25" width="3.50" shape="262.73,192.51 262.78,188.27"/>
    </edge>
    <edge id=":6#4_0" function="internal">