<?xml version='1.0' encoding='UTF-8'?>
<!-- generated on 2022-08-31 09:10:41 by Eclipse SUMO netconvert Version 1.13.0
<configuration xmlns:xsi="http://www.w3.org/2001/XMLSchema-instance" xsi:noNamespaceSchemaLocation="http://sumo.dlr.de/xsd/netconvertConfiguration.xsd">

    <input>
        <type-files value="C:\Users\86135\Desktop\carla-0.9.10\Co-Simulation\Sumo\util\data/opendrive_netconvert.typ.xml"/>
        <opendrive-files value="simple_signals.xodr"/>
    </input>

    <output>
        <output-file value="C:\Users\86135\AppData\Local\Temp\tmphm9ydq0b\simple_signals.net.xml"/>
        <output.original-names value="true"/>
    </output>

    <processing>
        <geometry.remove value="true"/>
        <geometry.min-radius.fix value="true"/>
        <geometry.max-grade.fix value="false"/>
    </processing>

    <tls_building>
        <tls.discard-loaded value="true"/>
        <tls.left-green.time value="0"/>
    </tls_building>

    <junctions>
        <rectangular-lane-cut value="true"/>
    </junctions>

    <formats>
        <opendrive.import-all-lanes value="true"/>
        <opendrive.curve-resolution value="1"/>
    </formats>

    <report>
        <aggregate-warnings value="5"/>
    </report>

</configuration>
-->
<net xmlns:xsi="http://www.w3.org/2001/XMLSchema-instance" version="1.9" junctionCornerDetail="5" rectangularLaneCut="true" limitTurnSpeed="5.50" xsi:noNamespaceSchemaLocation="http://sumo.dlr.de/xsd/net_file.xsd">
  <location netOffset="319.62,102.94" convBoundary="0.00,0.00,477.41,406.73" origBoundary="-319.62,-102.89,157.62,303.79" projParameter="!"/>
  <type id="bidirectional" priority="1" speed="1.39" disallow="pedestrian tram rail_urban rail rail_electric rail_fast ship" width="3.65"/>
  <type id="biking" priority="-1" speed="5.56" allow="bicycle" width="1.50"/>
  <type id="border" priority="0" speed="1.39" disallow="all" discard="1" width="0.10"/>
  <type id="driving" priority="1" speed="13.89" disallow="pedestrian tram rail_urban rail rail_electric rail_fast ship" width="3.65"/>
  <type id="entry" priority="1" speed="22.22" disallow="pedestrian tram rail_urban rail rail_electric rail_fast ship" width="3.65"/>
  <type id="exit" priority="1" speed="22.22" disallow="pedestrian tram rail_urban rail rail_electric rail_fast ship" width="3.65"/>
  <type id="median" priority="0" speed="1.39" disallow="all" discard="1" width="0.10"/>
  <type id="mwyEntry" priority="1" speed="22.22" allow="private emergency authority army vip passenger hov taxi bus coach delivery truck trailer motorcycle evehicle custom1 custom2" width="3.65"/>
  <type id="mwyExit" priority="1" speed="22.22" allow="private emergency authority army vip passenger hov taxi bus coach delivery truck trailer motorcycle evehicle custom1 custom2" width="3.65"/>
  <type id="none" priority="0" speed="1.39" disallow="all" discard="1" width="1.00"/>
  <type id="offRamp" priority="1" speed="22.22" allow="private emergency authority army vip passenger hov taxi bus coach delivery truck trailer motorcycle evehicle custom1 custom2" width="3.65"/>
  <type id="onRamp" priority="1" speed="22.22" allow="private emergency authority army vip passenger hov taxi bus coach delivery truck trailer motorcycle evehicle custom1 custom2" width="3.65"/>
  <type id="parking" priority="1" speed="1.39" disallow="pedestrian tram rail_urban rail rail_electric rail_fast ship" width="2.50"/>
  <type id="rail" priority="3" speed="33.33" allow="rail_urban rail rail_electric rail_fast" width="3.65"/>
  <type id="restricted" priority="0" speed="13.89" disallow="all" width="3.65"/>
  <type id="roadWorks" priority="0" speed="1.39" allow="authority" width="3.65"/>
  <type id="shoulder" priority="0" speed="1.39" disallow="all" discard="1" width="1.00"/>
  <type id="sidewalk" priority="-2" speed="2.78" allow="pedestrian" width="2.50"/>
  <type id="special1" priority="1" speed="22.22" allow="custom1" discard="1" width="3.65"/>
  <type id="special2" priority="1" speed="22.22" allow="custom2" discard="1" width="3.65"/>
  <type id="special3" priority="1" speed="22.22" allow="custom1 custom2" discard="1" width="3.65"/>
  <type id="stop" priority="1" speed="13.89" disallow="pedestrian tram rail_urban rail rail_electric rail_fast ship" width="3.65"/>
  <type id="tram" priority="2" speed="13.89" allow="tram" width="3.65"/>
  <edge id=":12.0_0" function="internal">
    <lane id=":12.0_0_0" index="0" allow="pedestrian" speed="22.35" length="3.00" width="2.00" shape="49.25,224.89 46.26,224.74"/>
    <lane id=":12.0_0_1" index="1" disallow="all" speed="22.35" length="3.00" width="0.63" shape="49.32,223.57 46.32,223.42"/>
    <lane id=":12.0_0_2" index="2" disallow="all" speed="22.35" length="3.00" width="2.50" shape="49.39,222.00 46.40,221.86"/>
    <lane id=":12.0_0_3" index="3" disallow="pedestrian tram rail_urban rail rail_electric rail_fast ship" speed="22.35" length="3.00" width="3.50" shape="49.54,219.01 46.54,218.86"/>
    <lane id=":12.0_0_4" index="4" disallow="pedestrian tram rail_urban rail rail_electric rail_fast ship" speed="22.35" length="3.00" width="3.50" shape="49.71,215.51 46.71,215.37"/>
  </edge>
  <edge id=":12.0_5" function="internal">
    <lane id=":12.0_5_0" index="0" allow="pedestrian" speed="22.35" length="3.81" width="2.00" shape="47.51,199.00 50.69,195.46"/>
    <lane id=":12.0_5_1" index="1" disallow="all" speed="22.35" length="3.81" width="0.64" shape="47.45,200.32 50.62,196.78"/>
    <lane id=":12.0_5_2" index="2" disallow="all" speed="22.35" length="3.81" width="6.19" shape="47.37,201.88 50.46,200.18"/>
    <lane id=":12.0_5_3" index="3" disallow="pedestrian tram rail_urban rail rail_electric rail_fast ship" speed="22.35" length="3.81" width="3.50" shape="47.22,204.88 50.22,205.02"/>
    <lane id=":12.0_5_4" index="4" disallow="pedestrian tram rail_urban rail rail_electric rail_fast ship" speed="22.35" length="3.81" width="3.50" shape="47.05,208.37 50.05,208.52"/>
  </edge>
  <edge id=":15_0" function="internal">
    <lane id=":15_0_0" index="0" allow="pedestrian" speed="5.65" length="7.11" width="2.00" shape="283.83,236.31 281.52,236.42 279.86,237.01 278.85,238.07 278.49,239.60">
      <param key="origId" value="16_-2"/>
      <param key="signalID" value="151"/>
    </lane>
    <lane id=":15_0_1" index="1" disallow="all" speed="6.24" length="9.27" width="0.63" shape="283.89,235.00 280.99,235.16 278.90,235.98 277.63,237.45 277.17,239.58">
      <param key="origId" value="16_-1"/>
      <param key="signalID" value="151"/>
    </lane>
  </edge>
  <edge id=":15_2" function="internal">
    <lane id=":15_2_0" index="0" disallow="all" speed="22.35" length="35.51" width="2.50" shape="283.97,233.43 248.50,231.71">
      <param key="origId" value="40_4"/>
    </lane>
  </edge>
  <edge id=":15_3" function="internal">
    <lane id=":15_3_0" index="0" disallow="pedestrian tram rail_urban rail rail_electric rail_fast ship" speed="8.59" length="16.78" width="3.50" shape="284.11,230.44 279.15,230.80 275.57,232.42 273.39,235.32 272.61,239.49">
      <param key="origId" value="26_1"/>
      <param key="signalID" value="151"/>
    </lane>
  </edge>
  <edge id=":15_4" function="internal">
    <lane id=":15_4_0" index="0" disallow="pedestrian tram rail_urban rail rail_electric rail_fast ship" speed="22.35" length="35.51" width="3.50" shape="284.11,230.44 248.65,228.71">
      <param key="origId" value="40_3"/>
      <param key="signalID" value="152"/>
    </lane>
    <lane id=":15_4_1" index="1" disallow="pedestrian tram rail_urban rail rail_electric rail_fast ship" speed="22.35" length="35.51" width="3.50" shape="284.28,226.94 248.82,225.21">
      <param key="origId" value="40_2"/>
      <param key="signalID" value="152"/>
    </lane>
  </edge>
  <edge id=":15_6" function="internal">
    <lane id=":15_6_0" index="0" disallow="pedestrian tram rail_urban rail rail_electric rail_fast ship" speed="12.77" length="36.62" width="3.50" shape="284.28,226.94 274.68,225.04 267.86,220.40 263.83,213.02 262.59,202.91">
      <param key="origId" value="43_-1"/>
      <param key="signalID" value="153"/>
    </lane>
  </edge>
  <edge id=":15_7" function="internal">
    <lane id=":15_7_0" index="0" disallow="all" speed="22.35" length="35.51" width="3.50" shape="284.45,223.44 248.99,221.72">
      <param key="origId" value="40_1"/>
    </lane>
  </edge>
  <edge id=":15_8" function="internal">
    <lane id=":15_8_0" index="0" allow="pedestrian" speed="6.27" length="8.47" width="2.00" shape="281.96,203.17 282.12,206.20 282.70,208.39 283.69,209.74 285.10,210.24">
      <param key="origId" value="41_2"/>
    </lane>
    <lane id=":15_8_1" index="1" disallow="all" speed="6.80" length="10.49" width="0.63" shape="280.64,203.15 280.87,206.75 281.68,209.34 283.07,210.95 285.03,211.55">
      <param key="origId" value="41_1"/>
    </lane>
  </edge>
  <edge id=":15_10" function="internal">
    <lane id=":15_10_0" index="0" disallow="all" speed="22.35" length="36.58" width="2.50" shape="279.07,203.13 275.61,239.55">
      <param key="origId" value="81_4"/>
    </lane>
  </edge>
  <edge id=":15_11" function="internal">
    <lane id=":15_11_0" index="0" disallow="pedestrian tram rail_urban rail rail_electric rail_fast ship" speed="8.97" length="3.40" width="3.50" shape="276.33,203.10 276.61,206.48">
      <param key="origId" value="51_1"/>
    </lane>
  </edge>
  <edge id=":15_12" function="internal">
    <lane id=":15_12_0" index="0" disallow="pedestrian tram rail_urban rail rail_electric rail_fast ship" speed="22.35" length="36.43" width="3.50" shape="273.09,203.05 272.61,239.49">
      <param key="origId" value="81_2"/>
    </lane>
    <lane id=":15_12_1" index="1" disallow="pedestrian tram rail_urban rail rail_electric rail_fast ship" speed="22.35" length="36.43" width="3.50" shape="269.59,203.01 269.11,239.43">
      <param key="origId" value="81_1"/>
      <param key="signalID" value="151"/>
    </lane>
  </edge>
  <edge id=":15_14" function="internal">
    <lane id=":15_14_0" index="0" disallow="pedestrian tram rail_urban rail rail_electric rail_fast ship" speed="11.68" length="8.15" width="3.50" shape="266.09,202.96 265.13,211.05">
      <param key="origId" value="83_1"/>
    </lane>
  </edge>
  <edge id=":15_29" function="internal">
    <lane id=":15_29_0" index="0" disallow="pedestrian tram rail_urban rail rail_electric rail_fast ship" speed="8.97" length="14.31" width="3.50" shape="276.61,206.48 276.80,208.78 278.36,212.90 281.03,215.46 284.79,216.45">
      <param key="origId" value="51_1"/>
    </lane>
  </edge>
  <edge id=":15_30" function="internal">
    <lane id=":15_30_0" index="0" disallow="pedestrian tram rail_urban rail rail_electric rail_fast ship" speed="11.68" length="24.00" width="3.50" shape="265.13,211.05 264.90,213.01 261.62,220.06 256.26,224.13 248.82,225.21">
      <param key="origId" value="83_1"/>
    </lane>
  </edge>
  <edge id=":15_15" function="internal">
    <lane id=":15_15_0" index="0" allow="pedestrian" speed="4.71" length="4.75" width="2.00" shape="249.80,205.16 251.28,205.07 252.34,204.65 252.98,203.89 253.21,202.79">
      <param key="origId" value="93_-2"/>
      <param key="signalID" value="150"/>
    </lane>
    <lane id=":15_15_1" index="1" disallow="all" speed="5.40" length="6.92" width="0.63" shape="249.73,206.48 251.81,206.33 253.30,205.68 254.21,204.50 254.53,202.81">
      <param key="origId" value="93_-1"/>
      <param key="signalID" value="150"/>
    </lane>
  </edge>
  <edge id=":15_17" function="internal">
    <lane id=":15_17_0" index="0" disallow="all" speed="22.35" length="35.55" width="2.84" shape="249.57,209.89 284.95,213.29">
      <param key="origId" value="39_-3"/>
    </lane>
  </edge>
  <edge id=":15_18" function="internal">
    <lane id=":15_18_0" index="0" disallow="pedestrian tram rail_urban rail rail_electric rail_fast ship" speed="8.76" length="17.57" width="3.50" shape="249.33,214.73 253.54,214.16 256.57,211.99 258.42,208.23 259.09,202.87">
      <param key="origId" value="92_-1"/>
      <param key="signalID" value="150"/>
    </lane>
  </edge>
  <edge id=":15_19" function="internal">
    <lane id=":15_19_0" index="0" disallow="pedestrian tram rail_urban rail rail_electric rail_fast ship" speed="22.35" length="35.51" width="3.50" shape="249.33,214.73 284.79,216.45">
      <param key="origId" value="39_-2"/>
      <param key="signalID" value="153"/>
    </lane>
    <lane id=":15_19_1" index="1" disallow="pedestrian tram rail_urban rail rail_electric rail_fast ship" speed="22.35" length="35.51" width="3.50" shape="249.16,218.22 284.62,219.95">
      <param key="origId" value="39_-1"/>
      <param key="signalID" value="153"/>
    </lane>
  </edge>
  <edge id=":15_21" function="internal">
    <lane id=":15_21_0" index="0" disallow="pedestrian tram rail_urban rail rail_electric rail_fast ship" speed="12.11" length="32.98" width="3.50" shape="249.16,218.22 258.03,219.92 264.31,224.02 268.00,230.52 269.11,239.43">
      <param key="origId" value="53_-1"/>
    </lane>
  </edge>
  <edge id=":15_22" function="internal">
    <lane id=":15_22_0" index="0" allow="pedestrian" speed="5.78" length="7.13" width="2.00" shape="252.73,239.13 252.48,237.22 251.67,235.83 250.30,234.95 248.36,234.59">
      <param key="origId" value="60_-2"/>
      <param key="signalID" value="152"/>
    </lane>
    <lane id=":15_22_1" index="1" disallow="all" speed="6.36" length="9.21" width="0.63" shape="254.04,239.15 253.73,236.68 252.69,234.88 250.92,233.74 248.43,233.27">
      <param key="origId" value="60_-1"/>
      <param key="signalID" value="152"/>
    </lane>
  </edge>
  <edge id=":15_24" function="internal">
    <lane id=":15_24_0" index="0" disallow="all" speed="22.35" length="36.35" width="2.50" shape="255.61,239.18 256.09,202.83">
      <param key="origId" value="82_-4"/>
    </lane>
  </edge>
  <edge id=":15_25" function="internal">
    <lane id=":15_25_0" index="0" disallow="pedestrian tram rail_urban rail rail_electric rail_fast ship" speed="8.68" length="4.81" width="3.50" shape="258.61,239.23 258.06,234.81 257.88,234.51">
      <param key="origId" value="63_-1"/>
      <param key="signalID" value="152"/>
    </lane>
  </edge>
  <edge id=":15_26" function="internal">
    <lane id=":15_26_0" index="0" disallow="pedestrian tram rail_urban rail rail_electric rail_fast ship" speed="22.35" length="36.38" width="3.50" shape="258.61,239.23 259.09,202.87">
      <param key="origId" value="82_-3"/>
      <param key="signalID" value="150"/>
    </lane>
    <lane id=":15_26_1" index="1" disallow="pedestrian tram rail_urban rail rail_electric rail_fast ship" speed="22.35" length="36.38" width="3.50" shape="262.11,239.30 262.59,202.91">
      <param key="origId" value="82_-2"/>
      <param key="signalID" value="150"/>
    </lane>
  </edge>
  <edge id=":15_28" function="internal">
    <lane id=":15_28_0" index="0" disallow="pedestrian tram rail_urban rail rail_electric rail_fast ship" speed="11.53" length="6.33" width="3.50" shape="265.61,239.36 266.55,233.11">
      <param key="origId" value="18_-1"/>
    </lane>
  </edge>
  <edge id=":15_31" function="internal">
    <lane id=":15_31_0" index="0" disallow="pedestrian tram rail_urban rail rail_electric rail_fast ship" speed="8.68" length="11.61" width="3.50" shape="257.88,234.51 256.21,231.59 253.08,229.55 248.65,228.71">
      <param key="origId" value="63_-1"/>
      <param key="signalID" value="152"/>
    </lane>
  </edge>
  <edge id=":15_32" function="internal">
    <lane id=":15_32_0" index="0" disallow="pedestrian tram rail_urban rail rail_electric rail_fast ship" speed="11.53" length="24.86" width="3.50" shape="266.55,233.11 266.94,230.53 270.55,224.35 276.45,220.82 284.62,219.95">
      <param key="origId" value="18_-1"/>
    </lane>
  </edge>
  <edge id=":3#1_0" function="internal">
    <lane id=":3#1_0_0" index="0" allow="pedestrian" speed="9.54" length="2.97" width="2.00" shape="278.30,259.08 278.77,254.23"/>
    <lane id=":3#1_0_1" index="1" disallow="all" speed="8.72" length="2.97" width="0.63" shape="277.20,258.35 277.45,254.21"/>
    <lane id=":3#1_0_2" index="2" disallow="all" speed="7.96" length="2.97" width="2.50" shape="275.89,257.49 275.89,254.18"/>
    <lane id=":3#1_0_3" index="3" disallow="pedestrian tram rail_urban rail rail_electric rail_fast ship" speed="6.09" length="2.97" width="3.50" shape="273.39,255.83 272.89,254.13"/>
    <lane id=":3#1_0_4" index="4" disallow="pedestrian tram rail_urban rail rail_electric rail_fast ship" speed="4.96" length="2.97" width="3.50" shape="270.47,253.91 269.39,254.06"/>
    <lane id=":3#1_0_5" index="5" disallow="all" speed="7.22" length="2.97" width="3.50" shape="267.55,251.98 265.89,254.00"/>
  </edge>
  <edge id=":3#1_6" function="internal">
    <lane id=":3#1_6_0" index="0" allow="pedestrian" speed="22.35" length="4.06" width="2.00" shape="254.85,247.83 255.23,246.76 255.10,245.88 254.97,245.00 255.35,243.93"/>
    <lane id=":3#1_6_1" index="1" disallow="all" speed="22.35" length="4.06" width="0.63" shape="255.95,248.56 256.33,247.48 256.20,246.60 256.07,245.72 256.45,244.65"/>
    <lane id=":3#1_6_2" index="2" disallow="all" speed="22.35" length="4.06" width="2.50" shape="257.25,249.42 257.64,248.35 257.51,247.47 257.38,246.59 257.76,245.52"/>
    <lane id=":3#1_6_3" index="3" disallow="pedestrian tram rail_urban rail rail_electric rail_fast ship" speed="22.35" length="4.06" width="3.50" shape="259.76,251.07 260.14,250.00 260.01,249.12 259.88,248.24 260.26,247.17"/>
    <lane id=":3#1_6_4" index="4" disallow="pedestrian tram rail_urban rail rail_electric rail_fast ship" speed="22.35" length="4.06" width="3.50" shape="262.68,253.00 263.06,251.93 262.93,251.05 262.80,250.17 263.18,249.10"/>
  </edge>
  <edge id=":3#2_0" function="internal">
    <lane id=":3#2_0_0" index="0" allow="pedestrian" speed="22.35" length="2.55" width="2.00" shape="275.87,259.61 278.41,258.91"/>
    <lane id=":3#2_0_1" index="1" disallow="all" speed="22.35" length="2.55" width="0.63" shape="274.77,258.89 277.31,258.18"/>
    <lane id=":3#2_0_2" index="2" disallow="all" speed="22.35" length="2.55" width="2.50" shape="273.47,258.02 276.00,257.32"/>
    <lane id=":3#2_0_3" index="3" disallow="pedestrian tram rail_urban rail rail_electric rail_fast ship" speed="22.35" length="2.55" width="3.50" shape="270.96,256.37 273.50,255.67"/>
    <lane id=":3#2_0_4" index="4" disallow="pedestrian tram rail_urban rail rail_electric rail_fast ship" speed="22.35" length="2.55" width="3.50" shape="268.04,254.44 270.58,253.74"/>
    <lane id=":3#2_0_5" index="5" disallow="all" speed="22.35" length="2.55" width="3.50" shape="265.84,252.99 267.66,251.81"/>
  </edge>
  <edge id=":3#2_6" function="internal">
    <lane id=":3#2_6_0" index="0" allow="pedestrian" speed="22.35" length="2.58" width="2.00" shape="255.46,243.76 252.89,244.44"/>
    <lane id=":3#2_6_1" index="1" disallow="all" speed="22.35" length="2.58" width="0.63" shape="256.56,244.49 253.99,245.16"/>
    <lane id=":3#2_6_2" index="2" disallow="all" speed="22.35" length="2.58" width="2.50" shape="257.87,245.35 255.30,246.03"/>
    <lane id=":3#2_6_3" index="3" disallow="pedestrian tram rail_urban rail rail_electric rail_fast ship" speed="22.35" length="2.58" width="3.50" shape="260.37,247.00 257.80,247.68"/>
    <lane id=":3#2_6_4" index="4" disallow="pedestrian tram rail_urban rail rail_electric rail_fast ship" speed="22.35" length="2.58" width="3.50" shape="263.29,248.93 260.72,249.61"/>
    <lane id=":3#2_6_5" index="5" allow="emergency authority" speed="22.35" length="2.58" width="3.50" shape="265.48,250.37 263.64,251.54"/>
  </edge>
  <edge id=":3#3_0" function="internal">
    <lane id=":3#3_0_0" index="0" allow="pedestrian" speed="17.39" length="14.35" width="2.00" shape="278.42,243.53 278.60,248.47 278.81,251.99 278.22,255.26 275.98,259.45"/>
    <lane id=":3#3_0_1" index="1" disallow="all" speed="16.95" length="14.35" width="0.63" shape="277.10,243.51 277.29,248.23 277.53,251.59 277.00,254.72 274.89,258.72"/>
    <lane id=":3#3_0_2" index="2" disallow="all" speed="16.55" length="14.35" width="2.50" shape="275.53,243.48 275.73,247.94 276.00,251.12 275.55,254.08 273.58,257.86"/>
    <lane id=":3#3_0_3" index="3" disallow="pedestrian tram rail_urban rail rail_electric rail_fast ship" speed="15.65" length="14.35" width="3.50" shape="272.54,243.43 272.75,247.38 273.09,250.21 272.78,252.85 271.07,256.20"/>
    <lane id=":3#3_0_4" index="4" disallow="pedestrian tram rail_urban rail rail_electric rail_fast ship" speed="14.47" length="14.35" width="3.50" shape="269.04,243.36 269.28,246.73 269.69,249.16 269.55,251.41 268.15,254.28"/>
  </edge>
  <edge id=":3#3_5" function="internal">
    <lane id=":3#3_5_0" index="0" allow="pedestrian" speed="5.21" length="4.28" width="2.00" shape="253.00,244.27 253.09,243.95 252.95,243.70 252.75,243.44 252.65,243.06"/>
    <lane id=":3#3_5_1" index="1" disallow="all" speed="6.09" length="4.28" width="0.63" shape="254.10,245.00 254.30,244.50 254.23,244.10 254.06,243.67 253.97,243.08"/>
    <lane id=":3#3_5_2" index="2" disallow="all" speed="7.42" length="4.28" width="2.50" shape="255.41,245.86 255.75,245.14 255.75,244.57 255.61,243.96 255.54,243.11"/>
    <lane id=":3#3_5_3" index="3" disallow="pedestrian tram rail_urban rail rail_electric rail_fast ship" speed="9.31" length="4.28" width="3.50" shape="257.91,247.51 258.51,246.37 258.66,245.48 258.59,244.51 258.54,243.17"/>
    <lane id=":3#3_5_4" index="4" disallow="pedestrian tram rail_urban rail rail_electric rail_fast ship" speed="11.07" length="4.28" width="3.50" shape="260.83,249.44 261.75,247.80 262.07,246.53 262.07,245.17 262.04,243.23"/>
    <lane id=":3#3_5_5" index="5" disallow="pedestrian tram rail_urban rail rail_electric rail_fast ship" speed="12.59" length="4.28" width="3.50" shape="263.75,251.37 264.98,249.24 265.47,247.59 265.55,245.82 265.54,243.30"/>
  </edge>
  <edge id=":6#1_0" function="internal">
    <lane id=":6#1_0_0" index="0" allow="pedestrian" speed="22.35" length="2.14" width="2.00" shape="280.87,193.50 282.06,195.49"/>
    <lane id=":6#1_0_1" index="1" disallow="all" speed="22.35" length="2.14" width="0.63" shape="279.55,193.49 280.74,195.47"/>
    <lane id=":6#1_0_2" index="2" disallow="all" speed="22.35" length="2.14" width="2.50" shape="277.99,193.47 279.18,195.45"/>
    <lane id=":6#1_0_3" index="3" allow="emergency authority" speed="22.35" length="2.14" width="2.98" shape="275.85,193.44 275.94,194.04 276.14,194.43 276.35,194.82 276.43,195.42"/>
    <lane id=":6#1_0_4" index="4" disallow="pedestrian tram rail_urban rail rail_electric rail_fast ship" speed="22.35" length="2.14" width="3.50" shape="273.22,193.40 273.19,195.37"/>
    <lane id=":6#1_0_5" index="5" disallow="pedestrian tram rail_urban rail rail_electric rail_fast ship" speed="22.35" length="2.14" width="3.50" shape="269.72,193.36 269.69,195.33"/>
    <lane id=":6#1_0_6" index="6" disallow="pedestrian tram rail_urban rail rail_electric rail_fast ship" speed="22.35" length="2.14" width="3.50" shape="266.22,193.31 266.19,195.28"/>
  </edge>
  <edge id=":6#1_7" function="internal">
    <lane id=":6#1_7_0" index="0" allow="pedestrian" speed="22.35" length="1.97" width="2.00" shape="253.31,195.11 253.34,193.14"/>
    <lane id=":6#1_7_1" index="1" disallow="all" speed="22.35" length="1.97" width="0.63" shape="254.63,195.13 254.65,193.16"/>
    <lane id=":6#1_7_2" index="2" disallow="all" speed="22.35" length="1.97" width="2.50" shape="256.20,195.15 256.22,193.18"/>
    <lane id=":6#1_7_3" index="3" disallow="pedestrian tram rail_urban rail rail_electric rail_fast ship" speed="22.35" length="1.97" width="3.50" shape="259.19,195.19 259.22,193.22"/>
    <lane id=":6#1_7_4" index="4" disallow="pedestrian tram rail_urban rail rail_electric rail_fast ship" speed="22.35" length="1.97" width="3.50" shape="262.69,195.23 262.72,193.26"/>
  </edge>
  <edge id=":6#2_0" function="internal">
    <lane id=":6#2_0_0" index="0" allow="pedestrian" speed="22.35" length="0.60" width="2.00" shape="280.09,192.94 280.87,193.30"/>
    <lane id=":6#2_0_1" index="1" disallow="all" speed="22.35" length="0.60" width="0.63" shape="278.78,192.92 279.56,193.29"/>
    <lane id=":6#2_0_2" index="2" disallow="all" speed="22.35" length="0.60" width="2.50" shape="277.21,192.90 277.99,193.27"/>
    <lane id=":6#2_0_3" index="3" allow="emergency authority" speed="22.35" length="0.60" width="1.77" shape="275.47,192.87 275.86,193.24"/>
    <lane id=":6#2_0_4" index="4" disallow="pedestrian tram rail_urban rail rail_electric rail_fast ship" speed="22.35" length="0.60" width="3.50" shape="273.23,192.84 273.22,193.20"/>
    <lane id=":6#2_0_5" index="5" disallow="pedestrian tram rail_urban rail rail_electric rail_fast ship" speed="22.35" length="0.60" width="3.50" shape="269.73,192.80 269.72,193.16"/>
    <lane id=":6#2_0_6" index="6" disallow="pedestrian tram rail_urban rail rail_electric rail_fast ship" speed="22.35" length="0.60" width="3.50" shape="266.23,192.75 266.22,193.11"/>
  </edge>
  <edge id=":6#2_7" function="internal">
    <lane id=":6#2_7_0" index="0" allow="pedestrian" speed="22.35" length="0.36" width="2.00" shape="253.34,192.94 253.34,192.58"/>
    <lane id=":6#2_7_1" index="1" disallow="all" speed="22.35" length="0.36" width="0.63" shape="254.66,192.96 254.66,192.60"/>
    <lane id=":6#2_7_2" index="2" disallow="all" speed="22.35" length="0.36" width="2.50" shape="256.22,192.98 256.23,192.62"/>
    <lane id=":6#2_7_3" index="3" disallow="pedestrian tram rail_urban rail rail_electric rail_fast ship" speed="22.35" length="0.36" width="3.50" shape="259.22,193.02 259.23,192.66"/>
    <lane id=":6#2_7_4" index="4" disallow="pedestrian tram rail_urban rail rail_electric rail_fast ship" speed="22.35" length="0.36" width="3.50" shape="262.72,193.06 262.73,192.71"/>
  </edge>
  <edge id=":6#3_0" function="internal">
    <lane id=":6#3_0_0" index="0" allow="pedestrian" speed="22.35" length="4.31" width="2.00" shape="279.17,188.49 279.31,189.77 279.63,190.61 279.96,191.46 280.10,192.74"/>
    <lane id=":6#3_0_1" index="1" disallow="all" speed="22.35" length="4.31" width="0.63" shape="277.85,188.47 277.99,189.75 278.32,190.60 278.64,191.44 278.78,192.72"/>
    <lane id=":6#3_0_2" index="2" disallow="all" speed="22.35" length="4.31" width="2.50" shape="276.29,188.45 276.42,189.73 276.75,190.58 277.08,191.42 277.21,192.70"/>
    <lane id=":6#3_0_3" index="3" disallow="pedestrian tram rail_urban rail rail_electric rail_fast ship" speed="22.35" length="4.31" width="3.50" shape="273.29,188.41 273.23,192.64"/>
    <lane id=":6#3_0_4" index="4" disallow="pedestrian tram rail_urban rail rail_electric rail_fast ship" speed="22.35" length="4.31" width="3.50" shape="269.79,188.37 269.73,192.60"/>
    <lane id=":6#3_0_5" index="5" disallow="pedestrian tram rail_urban rail rail_electric rail_fast ship" speed="22.35" length="4.31" width="3.50" shape="266.87,188.33 266.77,189.59 266.55,190.44 266.34,191.29 266.23,192.55"/>
    <lane id=":6#3_0_6" index="6" disallow="all" speed="22.35" length="4.31" width="0.00" shape="265.12,188.31 265.02,189.57 264.80,190.42 264.59,191.27 264.48,192.53"/>
  </edge>
  <edge id=":6#3_7" function="internal">
    <lane id=":6#3_7_0" index="0" allow="pedestrian" speed="22.35" length="4.23" width="2.00" shape="253.35,192.38 253.40,188.15"/>
    <lane id=":6#3_7_1" index="1" disallow="all" speed="22.35" length="4.23" width="0.63" shape="254.66,192.40 254.72,188.17"/>
    <lane id=":6#3_7_2" index="2" disallow="all" speed="22.35" length="4.23" width="2.50" shape="256.23,192.42 256.29,188.19"/>
    <lane id=":6#3_7_3" index="3" disallow="pedestrian tram rail_urban rail rail_electric rail_fast ship" speed="22.35" length="4.23" width="3.50" shape="259.23,192.46 259.29,188.23"/>
    <lane id=":6#3_7_4" index="4" disallow="pedestrian tram rail_urban rail rail_electric rail_fast ship" speed="22.35" length="4.23" width="3.50" shape="262.73,192.51 262.79,188.27"/>
  </edge>
  <edge id=":6#4_0" function="internal">
    <lane id=":6#4_0_0" index="0" allow="pedestrian" speed="22.35" length="5.87" width="2.00" shape="279.25,182.45 279.17,188.29"/>
    <lane id=":6#4_0_1" index="1" disallow="all" speed="22.35" length="5.87" width="0.63" shape="277.93,182.43 277.86,188.27"/>
    <lane id=":6#4_0_2" index="2" disallow="all" speed="22.35" length="5.87" width="2.50" shape="276.37,182.41 276.29,188.25"/>
    <lane id=":6#4_0_3" index="3" disallow="pedestrian tram rail_urban rail rail_electric rail_fast ship" speed="22.35" length="5.87" width="3.50" shape="273.37,182.37 273.29,188.21"/>
    <lane id=":6#4_0_4" index="4" disallow="pedestrian tram rail_urban rail rail_electric rail_fast ship" speed="22.35" length="5.87" width="3.50" shape="269.87,182.32 269.79,188.17"/>
    <lane id=":6#4_0_5" index="5" disallow="all" speed="22.35" length="5.87" width="1.18" shape="266.37,182.28 266.16,184.03 265.75,185.19 265.33,186.36 265.13,188.11"/>
  </edge>
  <edge id=":6#4_6" function="internal">
    <lane id=":6#4_6_0" index="0" allow="pedestrian" speed="22.35" length="5.84" width="2.00" shape="253.41,187.95 253.48,182.11"/>
    <lane id=":6#4_6_1" index="1" disallow="all" speed="22.35" length="5.84" width="0.63" shape="254.72,187.97 254.80,182.12"/>
    <lane id=":6#4_6_2" index="2" disallow="all" speed="22.35" length="5.84" width="2.50" shape="256.29,187.99 256.37,182.14"/>
    <lane id=":6#4_6_3" index="3" disallow="pedestrian tram rail_urban rail rail_electric rail_fast ship" speed="22.35" length="5.84" width="3.50" shape="259.29,188.03 259.37,182.18"/>
    <lane id=":6#4_6_4" index="4" disallow="pedestrian tram rail_urban rail rail_electric rail_fast ship" speed="22.35" length="5.84" width="3.50" shape="262.79,188.07 262.87,182.23"/>
  </edge>
  <edge id=":94_0" function="internal">
    <lane id=":94_0_0" index="0" allow="pedestrian" speed="7.07" length="10.39" width="2.00" shape="282.94,374.61,-0.07 280.20,375.24,-0.05 278.23,376.58,-0.04 277.04,378.64,-0.02 276.61,381.42">
      <param key="origId" value="121_-2"/>